new load.350199708 bus1=node_oh4301284.1 conn=y phases=1 kv=0.12009237875288684 kw=0.945278823375702 kvar=0.0608032494783401 
new load.27967 bus1=node_xfmr4307469.3 conn=y phases=1 kv=0.12009237875288684 kw=0.0 kvar=0.0 
new load.250008301 bus1=node_xfmr4307469.3 conn=y phases=1 kv=0.12009237875288684 kw=0.0748735666275024 kvar=0.00481609860435128 
new load.315390018 bus1=node_xfmr4307469.3 conn=y phases=1 kv=0.12009237875288684 kw=0.21526150405407 kvar=0.0138462837785482 
new load.350213107 bus1=node_xfmr4307469.3 conn=y phases=1 kv=0.12009237875288684 kw=1.17613935470581 kvar=0.0756529122591019 
new load.27961 bus1=node_xfmr4300830.3 conn=y phases=1 kv=0.12009237875288684 kw=1.39763963222504 kvar=0.0899004861712456 
new load.330132140 bus1=node_oh4301471.3 conn=y phases=1 kv=0.12009237875288684 kw=0.290135085582733 kvar=0.0186623837798834 
new load.150014703 bus1=node_oh4301471.3 conn=y phases=1 kv=0.12009237875288684 kw=0.315092980861664 kvar=0.0202677510678768 
new load.350198604 bus1=node_oh4301471.3 conn=y phases=1 kv=0.12009237875288684 kw=1.41635799407959 kvar=0.0911045148968697 
new load.350311538 bus1=node_oh4301471.3 conn=y phases=1 kv=0.12009237875288684 kw=1.06070840358734 kvar=0.0682280361652374 
new load.350291809 bus1=node_oh4307350.3 conn=y phases=1 kv=0.12009237875288684 kw=0.836088299751282 kvar=0.0537797771394253 
new load.350207808 bus1=node_oh4307350.3 conn=y phases=1 kv=0.12009237875288684 kw=0.50227689743042 kvar=0.0323079973459244 
new load.28039 bus1=node_oh4307350.3 conn=y phases=1 kv=0.12009237875288684 kw=0.0 kvar=0.0 
new load.350282001 bus1=node_oh4307350.3 conn=y phases=1 kv=0.12009237875288684 kw=0.396205991506577 kvar=0.0254851914942265 
new load.28335 bus1=node_oh4307349.3 conn=y phases=1 kv=0.12009237875288684 kw=0.0 kvar=0.0 
new load.350214901 bus1=node_t_3120.2 conn=y phases=1 kv=0.12009237875288684 kw=0.857926309108734 kvar=0.0551844649016857 
new load.352067604 bus1=node_oh4302621.3 conn=y phases=1 kv=0.12009237875288684 kw=0.149747133255005 kvar=0.00963219720870256 
new load.152000602 bus1=node_oh4302621.3 conn=y phases=1 kv=0.12009237875288684 kw=0.0 kvar=0.0 
new load.350312342 bus1=node_oh4302621.3 conn=y phases=1 kv=0.12009237875288684 kw=1.67841553688049 kvar=0.107960857450962 
new load.150021408 bus1=node_oh4301034.3 conn=y phases=1 kv=0.12009237875288684 kw=0.0 kvar=0.0 
new load.350274009 bus1=node_oh4301034.3 conn=y phases=1 kv=0.12009237875288684 kw=3.00742149353027 kvar=0.19344662129879 
new load.350311511 bus1=node_xfmr4301129.3 conn=y phases=1 kv=0.12009237875288684 kw=0.851686835289001 kvar=0.0547831244766712 
new load.350311627 bus1=node_oh4301152.3 conn=y phases=1 kv=0.12009237875288684 kw=0.889123618602753 kvar=0.0571911707520485 
new load.5068 bus1=node_oh4302377.3 conn=y phases=1 kv=0.12009237875288684 kw=0.0 kvar=0.0 
new load.350311758 bus1=node_oh4302377.3 conn=y phases=1 kv=0.12009237875288684 kw=0.0 kvar=0.0 
new load.417256604 bus1=node_t3770029.3 conn=y phases=1 kv=0.12009237875288684 kw=0.0 kvar=0.0 
new load.419042709 bus1=node_oh3770038.3 conn=y phases=1 kv=0.12009237875288684 kw=1.16678011417389 kvar=0.0750508904457092 
new load.117217801 bus1=node_oh3770038.3 conn=y phases=1 kv=0.12009237875288684 kw=2.04654455184937 kvar=0.131640046834946 
new load.419147208 bus1=node_oh3770038.3 conn=y phases=1 kv=0.12009237875288684 kw=0.202782601118088 kvar=0.0130436019971967 
new load.419146001 bus1=node_oh3770038.3 conn=y phases=1 kv=0.12009237875288684 kw=0.673862099647522 kvar=0.0433448888361454 
new load.418963908 bus1=node_t3770029.3 conn=y phases=1 kv=0.12009237875288684 kw=22.4620704650879 kvar=1.44482958316803 
new load.418215103 bus1=node_t3770003.3 conn=y phases=1 kv=0.12009237875288684 kw=1.31652724742889 kvar=0.0846830904483795 
new load.418210705 bus1=node_t3770003.3 conn=y phases=1 kv=0.12009237875288684 kw=0.233979895710945 kvar=0.0150503078475595 
new load.418700605 bus1=node_t3770003.3 conn=y phases=1 kv=0.12009237875288684 kw=1.66905629634857 kvar=0.10735884308815 
new load.419152309 bus1=node_t3770003.3 conn=y phases=1 kv=0.12009237875288684 kw=0.586509644985199 kvar=0.0377261079847813 
new load.419152382 bus1=node_t3770003.3 conn=y phases=1 kv=0.12009237875288684 kw=1.4413161277771 kvar=0.0927098989486694 
new load.350151101 bus1=node_t3660003.3 conn=y phases=1 kv=0.12009237875288684 kw=1.07318818569183 kvar=0.0690307691693306 
new load.419145618 bus1=node_oh3670015.3 conn=y phases=1 kv=0.12009237875288684 kw=1.40387940406799 kvar=0.0903018489480019 
new load.5046 bus1=node_t3570010.3 conn=y phases=1 kv=0.12009237875288684 kw=0.970237016677856 kvar=0.0624086372554302 
new load.419147818 bus1=node_t3570010.3 conn=y phases=1 kv=0.12009237875288684 kw=1.03575146198273 kvar=0.0666227266192436 
new load.5056 bus1=node_t3560006.3 conn=y phases=1 kv=0.12009237875288684 kw=0.0 kvar=0.0 
new load.350167601 bus1=node_t3560006.3 conn=y phases=1 kv=0.12009237875288684 kw=0.249578580260277 kvar=0.0160536635667086 
new load.350305109 bus1=node_t3560006.3 conn=y phases=1 kv=0.12009237875288684 kw=0.368128418922424 kvar=0.0236791539937258 
new load.317220009 bus1=node_oh4300217.1 conn=y phases=1 kv=0.12009237875288684 kw=0.355649441480637 kvar=0.0228764675557613 
new load.117230107 bus1=node_oh4300217.1 conn=y phases=1 kv=0.12009237875288684 kw=1.50683057308197 kvar=0.0969239845871925 
new load.217157105 bus1=node_oh4300217.1 conn=y phases=1 kv=0.12009237875288684 kw=2.52074313163757 kvar=0.162141963839531 
new load.350224400 bus1=node_oh4300217.1 conn=y phases=1 kv=0.12009237875288684 kw=0.046795979142189 kvar=0.00301006156951189 
new load.350312320 bus1=node_oh4300217.1 conn=y phases=1 kv=0.12009237875288684 kw=1.25413227081299 kvar=0.0806696563959122 
new load.350296207 bus1=node_oh4300487.2 conn=y phases=1 kv=0.12009237875288684 kw=0.0 kvar=0.0 
new load.350311560 bus1=node_oh4300487.2 conn=y phases=1 kv=0.12009237875288684 kw=1.76576864719391 kvar=0.11357968300581 
new load.4822 bus1=node_oh4300487.2 conn=y phases=1 kv=0.12009237875288684 kw=0.0 kvar=0.0 
new load.350140606 bus1=node_oh4300487.2 conn=y phases=1 kv=0.12009237875288684 kw=0.939038932323456 kvar=0.0604018792510033 
new load.350311628 bus1=node_oh4300513.3 conn=y phases=1 kv=0.12009237875288684 kw=1.83752167224884 kvar=0.118195056915283 
new load.350311712 bus1=node_oh4303866.3 conn=y phases=1 kv=0.12009237875288684 kw=0.0 kvar=0.0 
new load.350313329 bus1=node_oh4303866.3 conn=y phases=1 kv=0.12009237875288684 kw=1.38204169273376 kvar=0.0888971835374832 
new load.419140626 bus1=node_oh4303866.3 conn=y phases=1 kv=0.12009237875288684 kw=3.23204231262207 kvar=0.207894921302795 
new load.350310510 bus1=node_oh4303788.3 conn=y phases=1 kv=0.12009237875288684 kw=0.0249578598886728 kvar=0.00160536647308618 
new load.350269706 bus1=node_xfmr4303106.1 conn=y phases=1 kv=0.12009237875288684 kw=0.471079587936401 kvar=0.0303012914955616 
new load.250004500 bus1=node_oh4300986.1 conn=y phases=1 kv=0.12009237875288684 kw=1.22917401790619 kvar=0.0790642648935318 
new load.350209800 bus1=node_oh4300986.1 conn=y phases=1 kv=0.12009237875288684 kw=0.0 kvar=0.0 
new load.150035204 bus1=node_oh4300986.1 conn=y phases=1 kv=0.12009237875288684 kw=0.533474147319794 kvar=0.0343147031962872 
new load.25 bus1=node_xfmr4302095.1 conn=y phases=1 kv=0.12009237875288684 kw=0.0 kvar=0.0 
new load.3682 bus1=node_xfmr4302990.2 conn=y phases=1 kv=0.12009237875288684 kw=0.0 kvar=0.0 
new load.3683 bus1=node_xfmr4302990.2 conn=y phases=1 kv=0.12009237875288684 kw=0.0 kvar=0.0 
new load.117228803 bus1=node_xfmr4302990.2 conn=y phases=1 kv=0.12009237875288684 kw=0.0 kvar=0.0 
new load.350183003 bus1=node_xfmr4302992.1 conn=y phases=1 kv=0.12009237875288684 kw=1.76888799667358 kvar=0.113780327141285 
new load.350175809 bus1=node_oh4302370.2 conn=y phases=1 kv=0.12009237875288684 kw=0.455480933189392 kvar=0.0292979385703802 
new load.350311688 bus1=node_oh4302380.2 conn=y phases=1 kv=0.12009237875288684 kw=0.845447421073914 kvar=0.0543817840516567 
new load.350313376 bus1=node_oh4302384.1 conn=y phases=1 kv=0.12009237875288684 kw=6.08659744262695 kvar=0.39150869846344 
new load.350268904 bus1=node_oh4302393.2 conn=y phases=1 kv=0.12009237875288684 kw=1.12310349941254 kvar=0.0722414776682854 
