clear


!Creating new circuit
New circuit.node_oh4301500
~ basekv=12.469634207968305 pu=0.9776002949931218 phases=3 bus1=node_oh4301500.1.2.3
~ mvasc3=20000 mvasc1=21000 

redirect transformercodes.dss

redirect wiredata.dss

redirect linegeometry.dss

!line definations
new line.oh4301105 bus1=node_oh4301053.3 bus2=node_oh4301105.3 switch=n length=384.43315738893403 units=ft geometry=#4-acsr-7/1:#4-acsr-7/1:1 enabled=true phases=1 
new line.oh4301124 bus1=node_64044-cp571113943-56704.1.2.3 bus2=node_oh4301124.1.2.3 switch=n length=163.834472868175 units=ft geometry=#1/0-acsr-6/1:#2-acsr-6/1:3 enabled=true phases=3 
new line.ug4301286 bus1=node_ocd4300153.1 bus2=node_ug4301286.1 switch=n length=43.6827586125436 units=ft geometry=#1/0-25kv-jac:#1/0-25kv-jac:1 enabled=true phases=1 
new line.ug4307481 bus1=node_ocd4307480.3 bus2=node_ug4307481.3 switch=n length=480.29375365491404 units=ft geometry=#1/0-25kv-jac:#1/0-25kv-jac:1 enabled=true phases=1 
new line.oh4307470 bus1=node_oh4307466.3 bus2=node_oh4307470.3 switch=n length=253.768068125284 units=ft geometry=#4-acsr-7/1:#4-acsr-7/1:1 enabled=true phases=1 
new line.oh4307467 bus1=node_ocd4307468.3 bus2=node_oh4307467.3 switch=n length=1012.20214606572 units=ft geometry=#4-acsr-7/1:#4-acsr-7/1:1 enabled=true phases=1 
new line.ug_3_32_15_3_2 bus1=node_ocd4303060.3 bus2=node_ug_3_32_15_3_2.3 switch=n length=1412.3622599219102 units=ft geometry=#1/0-25kv-jac:#1/0-25kv-jac:1 enabled=true phases=1 
new line.ug_3_32_15_1_0001 bus1=node_ug_3_32_15_3_0001.3 bus2=node_ug_3_32_15_1_0001.3 switch=n length=552.259297845894 units=ft geometry=#1/0-25kv-jac:#1/0-25kv-jac:1 enabled=true phases=1 
new line.ug_3_32_15_3_0004 bus1=node_ug_3_32_15_3_0002.3 bus2=node_ug_3_32_15_3_0004.3 switch=n length=242.986846931154 units=ft geometry=#1/0-25kv-jac:#1/0-25kv-jac:1 enabled=true phases=1 
new line.oh4307435 bus1=node_oh4301470.3 bus2=node_oh4307435.3 switch=n length=545.690653209385 units=ft geometry=#4-acsr-7/1:#4-acsr-7/1:1 enabled=true phases=1 
new line.oh4301473 bus1=node_oh4301470.3 bus2=node_oh4301473.3 switch=n length=115.532243551467 units=ft geometry=#4-acsr-7/1:#4-acsr-7/1:1 enabled=true phases=1 
new line.oh4307429 bus1=node_ocd4300203.3 bus2=node_oh4307429.3 switch=n length=538.498860258712 units=ft geometry=#4-acsr-7/1:#4-acsr-7/1:1 enabled=true phases=1 
new line.oh4303149 bus1=node_oh4303146.3 bus2=node_oh4303149.3 switch=n length=371.12414661391 units=ft geometry=#4-acsr-7/1:#4-acsr-7/1:1 enabled=true phases=1 
new line.ug4303147 bus1=node_ocd4303056.3 bus2=node_ug4303147.3 switch=n length=469.535947292623 units=ft geometry=#1/0-25kv-jac:#1/0-25kv-jac:1 enabled=true phases=1 
new line.ug4307353 bus1=node_ocd4307352.3 bus2=node_ug4307353.3 switch=n length=233.85855318975499 units=ft geometry=#1/0-25kv-jac:#1/0-25kv-jac:1 enabled=true phases=1 
new line.ug4301579 bus1=node_ocd4300174.2 bus2=node_ug4301579.2 switch=n length=89.2883710234727 units=ft geometry=none:none:1 enabled=true phases=1 
new line.oh4303903 bus1=node_oh4301581.2 bus2=node_oh4303903.2 switch=n length=677.472985734377 units=ft geometry=#4-acsr-7/1:#4-acsr-7/1:1 enabled=true phases=1 
new line.ug4303904 bus1=node_oh4301581.2 bus2=node_ug4303904.2 switch=n length=303.89547956485 units=ft geometry=#1/0-25kv-jac:#1/0-25kv-jac:1 enabled=true phases=1 
new line.oh4301248 bus1=node_oh4301247.1.2.3 bus2=node_oh4301248.1.2.3 switch=n length=107.43825482572599 units=ft geometry=#1/0-acsr-6/1:#2-acsr-6/1:3 enabled=true phases=3 
new line.ug4301249 bus1=node_ocd4300150.3 bus2=node_ug4301249.3 switch=n length=758.86651085683 units=ft geometry=#1/0-25kv-jac:#1/0-25kv-jac:1 enabled=true phases=1 
new line.ug4301169 bus1=node_ocd4300055.3 bus2=node_ug4301169.3 switch=n length=181.012036340088 units=ft geometry=#1/0-25kv-jac:#1/0-25kv-jac:1 enabled=true phases=1 
new line.oh4301886 bus1=node_oh4301884.1.2.3 bus2=node_oh4301886.1.2.3 switch=n length=213.03320914822498 units=ft geometry=#2-acsr-6/1:#2-acsr-6/1:3 enabled=true phases=3 
new line.ug4301885 bus1=node_ocd4302602.1.2.3 bus2=node_ug4301885.1.2.3 switch=n length=167.280359277458 units=ft geometry=#1/0-25kv-jac:#1/0-25kv-jac:3 enabled=true phases=3 
new line.oh4301926 bus1=node_oh4301915.1.2.3 bus2=node_oh4301926.1.2.3 switch=n length=411.76203710394697 units=ft geometry=#2-acsr-6/1:#2-acsr-6/1:3 enabled=true phases=3 
new line.ug4301916 bus1=node_ocd4308022.1.2.3 bus2=node_ug4301916.1.2.3 switch=n length=138.659730635872 units=ft geometry=#1/0-25kv-jac:#1/0-25kv-jac:3 enabled=true phases=3 
new line.ug4301973 bus1=node_ocd4300047.1.2.3 bus2=node_ug4301973.1.2.3 switch=n length=221.47015023212998 units=ft geometry=#1/0-25kv-jac:#1/0-25kv-jac:3 enabled=true phases=3 
new line.oh4300203 bus1=node_oh4302612.2 bus2=node_oh4300203.2 switch=n length=471.105250766632 units=ft geometry=#4-acsr-7/1:#4-acsr-7/1:1 enabled=true phases=1 
new line.oh4301574 bus1=node_ocd4303894.3 bus2=node_oh4301574.3 switch=n length=448.559509652889 units=ft geometry=#4-acsr-7/1:#4-acsr-7/1:1 enabled=true phases=1 
new line.ug4303896 bus1=node_ocd4303895.2 bus2=node_ug4303896.2 switch=n length=237.263371172198 units=ft geometry=#1/0-25kv-jac:#1/0-25kv-jac:1 enabled=true phases=1 
new line.oh4302611 bus1=node_oh4302609.3 bus2=node_oh4302611.3 switch=n length=1.0 units=ft geometry=#4-acsr-7/1:#4-acsr-7/1:1 enabled=true phases=1 
new line.oh4302610 bus1=node_oh4302609.1.2.3 bus2=node_oh4302610.1.2.3 switch=n length=85.7131040156077 units=ft geometry=#2-acsr-6/1:#2-acsr-6/1:3 enabled=true phases=3 
new line.oh4301961 bus1=node_oh4302609.1.2.3 bus2=node_oh4301961.1.2.3 switch=n length=1.0 units=ft geometry=#4-acsr-7/1:#4-acsr-7/1:3 enabled=true phases=3 
new line.ug4301966 bus1=node_ocd4302743.1.2.3 bus2=node_ug4301966.1.2.3 switch=n length=143.83326040930902 units=ft geometry=#1/0-25kv-jac:#1/0-25kv-jac:3 enabled=true phases=3 
new line.oh4301934 bus1=node_ocd4302623.3 bus2=node_oh4301934.3 switch=n length=251.01994761376702 units=ft geometry=#4-acsr-7/1:#4-acsr-7/1:1 enabled=true phases=1 
new line.ug4301555 bus1=node_ocd4302603.1.2.3 bus2=node_ug4301555.1.2.3 switch=n length=147.752821969827 units=ft geometry=#1/0-25kv-jac:#1/0-25kv-jac:3 enabled=true phases=3 
new line.oh4301036 bus1=node_oh4301033.3 bus2=node_oh4301036.3 switch=n length=289.21915047237997 units=ft geometry=#4-acsr-6/1:#4-acsr-6/1:1 enabled=true phases=1 
new line.ug4301105 bus1=node_ocd4302594.3 bus2=node_ug4301105.3 switch=n length=169.055996639983 units=ft geometry=#1/0-25kv-jac:#1/0-25kv-jac:1 enabled=true phases=1 
new line.oh4301121 bus1=node_oh4301111.3 bus2=node_oh4301121.3 switch=n length=142.39994733139602 units=ft geometry=#4-acsr-6/1:#4-acsr-6/1:1 enabled=true phases=1 
new line.ug4301119 bus1=node_ocd4302595.3 bus2=node_ug4301119.3 switch=n length=228.895665533423 units=ft geometry=none:none:1 enabled=true phases=1 
new line.ug4301124 bus1=node_ocd4302596.3 bus2=node_ug4301124.3 switch=n length=127.41859558175301 units=ft geometry=#1/0-25kv-jac:#1/0-25kv-jac:1 enabled=true phases=1 
new line.ug4301154 bus1=node_ocd4307828.3 bus2=node_ug4301154.3 switch=n length=349.46546853730905 units=ft geometry=#1/0-25kv-jac:#1/0-25kv-jac:1 enabled=true phases=1 
new line.oh4301514 bus1=node_oh4301505.1 bus2=node_oh4301514.1 switch=n length=294.572483609753 units=ft geometry=#4-acsr-7/1:#4-acsr-7/1:1 enabled=true phases=1 
new line.ug4301524 bus1=node_ocd4303004.1 bus2=node_ug4301524.1 switch=n length=1111.25168242822 units=ft geometry=#1/0-25kv-jac:#1/0-25kv-jac:1 enabled=true phases=1 
new line.oh4301501 bus1=node_oh4301500.1.2.3 bus2=node_oh4301501.1.2.3 switch=n length=439.909038893417 units=ft geometry=#2-acsr-6/1:#2-acsr-6/1:3 enabled=true phases=3 
new line.oh4307317 bus1=node_oh4301501.1.2.3 bus2=node_oh4307317.1.2.3 switch=n length=335.88852868182204 units=ft geometry=#2-acsr-6/1:#2-acsr-6/1:3 enabled=true phases=3 
new line.oh4307318 bus1=node_oh4307317.1.2.3 bus2=node_oh4307318.1.2.3 switch=n length=14.143896209911402 units=ft geometry=#2-acsr-6/1:#2-acsr-6/1:3 enabled=true phases=3 
new line.oh4301503 bus1=node_oh4307317.1 bus2=node_oh4301503.1 switch=n length=549.726016211696 units=ft geometry=#4-acsr-7/1:#4-acsr-7/1:1 enabled=true phases=1 
new line.oh4301502 bus1=node_reg4302742.1.2.3 bus2=node_oh4301502.1.2.3 switch=n length=346.109703562444 units=ft geometry=#2-acsr-6/1:#2-acsr-6/1:3 enabled=true phases=3 
new line.oh4301031 bus1=node_oh4301502.1.2.3 bus2=node_oh4301031.1.2.3 switch=n length=641.795816284139 units=ft geometry=#2-acsr-6/1:#2-acsr-6/1:3 enabled=true phases=3 
new line.oh4301052 bus1=node_oh4301031.1.2.3 bus2=node_oh4301052.1.2.3 switch=n length=519.746911198117 units=ft geometry=#2-acsr-6/1:#2-acsr-6/1:3 enabled=true phases=3 
new line.oh4301033 bus1=node_oh4301031.3 bus2=node_oh4301033.3 switch=n length=355.85739067762296 units=ft geometry=#4-acsr-6/1:#4-acsr-6/1:1 enabled=true phases=1 
new line.oh4301032 bus1=node_xfmr4301248.3 bus2=node_oh4301032.3 switch=n length=135.191466076625 units=ft geometry=trip-#1/0:trip-#1/0:1 enabled=true phases=1 
new line.oh4301053 bus1=node_oh4301052.1.2.3 bus2=node_oh4301053.1.2.3 switch=n length=380.547012733056 units=ft geometry=#1/0-acsr-6/1:#2-acsr-6/1:3 enabled=true phases=3 
new line.oh4301535 bus1=node_oh4301052.1.2.3 bus2=node_oh4301535.1.2.3 switch=n length=539.178272930174 units=ft geometry=#2-acsr-6/1:#2-acsr-6/1:3 enabled=true phases=3 
new line.oh4301127 bus1=node_oh4301124.1.2.3 bus2=node_oh4301127.1.2.3 switch=n length=258.134485298017 units=ft geometry=#1/0-acsr-6/1:#2-acsr-6/1:3 enabled=true phases=3 
new line.oh4301125 bus1=node_xfmr4301136.3 bus2=node_oh4301125.3 switch=n length=70.8279506976553 units=ft geometry=trip-#1/0:trip-#1/0:1 enabled=true phases=1 
new line.oh4301126 bus1=node_xfmr4301136.3 bus2=node_oh4301126.3 switch=n length=116.7769634817 units=ft geometry=trip-#1/0:trip-#1/0:1 enabled=true phases=1 
new line.oh4301140 bus1=node_oh4301127.1.2.3 bus2=node_oh4301140.1.2.3 switch=n length=384.289832938524 units=ft geometry=#1/0-acsr-6/1:#2-acsr-6/1:3 enabled=true phases=3 
new line.oh4301176 bus1=node_oh4301140.1.2.3 bus2=node_oh4301176.1.2.3 switch=n length=327.360589106322 units=ft geometry=#1/0-acsr-6/1:#2-acsr-6/1:3 enabled=true phases=3 
new line.oh4301168 bus1=node_oh4301140.3 bus2=node_oh4301168.3 switch=n length=150.044061861936 units=ft geometry=#4-acsr-7/1:#4-acsr-7/1:1 enabled=true phases=1 
new line.oh4301143 bus1=node_oh4301140.2 bus2=node_oh4301143.2 switch=n length=292.881612942859 units=ft geometry=#4-acsr-7/1:#4-acsr-7/1:1 enabled=true phases=1 
new line.oh4301193 bus1=node_oh4301176.1.2.3 bus2=node_oh4301193.1.2.3 switch=n length=381.370901485568 units=ft geometry=#1/0-acsr-6/1:#2-acsr-6/1:3 enabled=true phases=3 
new line.oh4301210 bus1=node_oh4301193.1.2.3 bus2=node_oh4301210.1.2.3 switch=n length=327.70845121852403 units=ft geometry=#1/0-acsr-6/1:#2-acsr-6/1:3 enabled=true phases=3 
new line.oh4301197 bus1=node_xfmr4301195.3 bus2=node_oh4301197.3 switch=n length=90.77029139538651 units=ft geometry=trip-#1/0:trip-#1/0:1 enabled=true phases=1 
new line.oh4301204 bus1=node_oh4301197.3 bus2=node_oh4301204.3 switch=n length=120.822304646261 units=ft geometry=trip-#1/0:trip-#1/0:1 enabled=true phases=1 
new line.oh4301227 bus1=node_oh4301210.1.2.3 bus2=node_oh4301227.1.2.3 switch=n length=261.50264339003104 units=ft geometry=#1/0-acsr-6/1:#2-acsr-6/1:3 enabled=true phases=3 
new line.oh4301221 bus1=node_xfmr4301223.3 bus2=node_oh4301221.3 switch=n length=56.769577239856794 units=ft geometry=trip-#1/0:trip-#1/0:1 enabled=true phases=1 
new line.oh4301212 bus1=node_xfmr4301223.3 bus2=node_oh4301212.3 switch=n length=59.491176656819896 units=ft geometry=trip-#1/0:trip-#1/0:1 enabled=true phases=1 
new line.oh4301222 bus1=node_oh4301221.3 bus2=node_oh4301222.3 switch=n length=104.656436973598 units=ft geometry=trip-#1/0:trip-#1/0:1 enabled=true phases=1 
new line.oh4301247 bus1=node_oh4301227.1.2.3 bus2=node_oh4301247.1.2.3 switch=n length=125.394454821702 units=ft geometry=#1/0-acsr-6/1:#2-acsr-6/1:3 enabled=true phases=3 
new line.oh4301231 bus1=node_oh4301227.3 bus2=node_oh4301231.3 switch=n length=29.7607835254703 units=ft geometry=#4-acsr-7/1:#4-acsr-7/1:1 enabled=true phases=1 
new line.oh4301251 bus1=node_oh4301248.1.2.3 bus2=node_oh4301251.1.2.3 switch=n length=233.50365243398102 units=ft geometry=#1/0-acsr-6/1:#2-acsr-6/1:3 enabled=true phases=3 
new line.oh4301265 bus1=node_oh4301251.1.2.3 bus2=node_oh4301265.1.2.3 switch=n length=381.242030867547 units=ft geometry=#1/0-acsr-6/1:#2-acsr-6/1:3 enabled=true phases=3 
new line.oh4301253 bus1=node_oh4301251.1 bus2=node_oh4301253.1 switch=n length=268.27257817376 units=ft geometry=#4-acsr-7/1:#4-acsr-7/1:1 enabled=true phases=1 
new line.oh4301269 bus1=node_oh4301265.1.2.3 bus2=node_oh4301269.1.2.3 switch=n length=287.210493192597 units=ft geometry=#1/0-acsr-6/1:#2-acsr-6/1:3 enabled=true phases=3 
new line.oh4301270 bus1=node_oh4301269.1.2.3 bus2=node_oh4301270.1.2.3 switch=n length=313.46047805122396 units=ft geometry=#1/0-acsr-6/1:#2-acsr-6/1:3 enabled=true phases=3 
new line.oh4301273 bus1=node_oh4301270.3 bus2=node_oh4301273.3 switch=n length=425.127150979573 units=ft geometry=#4-acsr-7/1:#4-acsr-7/1:1 enabled=true phases=1 
new line.oh4301275 bus1=node_oh4301270.1 bus2=node_oh4301275.1 switch=n length=595.0660497793219 units=ft geometry=#4-acsr-7/1:#4-acsr-7/1:1 enabled=true phases=1 
new line.oh4301276 bus1=node_oh4301270.1.2.3 bus2=node_oh4301276.1.2.3 switch=n length=377.919783155114 units=ft geometry=#1/0-acsr-6/1:#2-acsr-6/1:3 enabled=true phases=3 
new line.oh4301271 bus1=node_xfmr4301280.3 bus2=node_oh4301271.3 switch=n length=101.80231677131201 units=ft geometry=trip-#1/0:trip-#1/0:1 enabled=true phases=1 
new line.oh4301272 bus1=node_xfmr4301280.3 bus2=node_oh4301272.3 switch=n length=150.659956524819 units=ft geometry=trip-#1/0:trip-#1/0:1 enabled=true phases=1 
new line.oh4300151 bus1=node_oh4301273.3 bus2=node_oh4300151.3 switch=n length=408.27737201569 units=ft geometry=#4-acsr-7/1:#4-acsr-7/1:1 enabled=true phases=1 
new line.oh4301578 bus1=node_oh4300151.3 bus2=node_oh4301578.3 switch=n length=450.57958597785597 units=ft geometry=#4-acsr-7/1:#4-acsr-7/1:1 enabled=true phases=1 
new line.oh4301284 bus1=node_xfmr4301285.1 bus2=node_oh4301284.1 switch=n length=116.380088503081 units=ft geometry=trip-#1/0:trip-#1/0:1 enabled=true phases=1 
new line.oh4301295 bus1=node_oh4301276.1.2.3 bus2=node_oh4301295.1.2.3 switch=n length=382.087700011334 units=ft geometry=#1/0-acsr-6/1:#2-acsr-6/1:3 enabled=true phases=3 
new line.oh4301277 bus1=node_oh4301276.1 bus2=node_oh4301277.1 switch=n length=166.76145148107 units=ft geometry=#4-acsr-7/1:#4-acsr-7/1:1 enabled=true phases=1 
new line.oh4301298 bus1=node_oh4301295.1.2.3 bus2=node_oh4301298.1.2.3 switch=n length=298.239312130259 units=ft geometry=#1/0-acsr-6/1:#2-acsr-6/1:3 enabled=true phases=3 
new line.oh4301296 bus1=node_xfmr4301297.2 bus2=node_oh4301296.2 switch=n length=142.08237786583598 units=ft geometry=trip-#1/0:trip-#1/0:1 enabled=true phases=1 
new line.oh4301301 bus1=node_oh4301298.1.2.3 bus2=node_oh4301301.1.2.3 switch=n length=284.453829645598 units=ft geometry=#1/0-acsr-6/1:#2-acsr-6/1:3 enabled=true phases=3 
new line.oh4301299 bus1=node_oh4301298.1.2.3 bus2=node_oh4301299.1.2.3 switch=n length=1.0 units=ft geometry=trip-#1/0:trip-#1/0:3 enabled=true phases=3 
new line.oh4301305 bus1=node_oh4301301.1.2.3 bus2=node_oh4301305.1.2.3 switch=n length=330.57460580025 units=ft geometry=#1/0-acsr-6/1:#2-acsr-6/1:3 enabled=true phases=3 
new line.oh4301303 bus1=node_xfmr4301302.1 bus2=node_oh4301303.1 switch=n length=82.9878165755934 units=ft geometry=trip-#1/0:trip-#1/0:1 enabled=true phases=1 
new line.oh4301304 bus1=node_xfmr4301302.1 bus2=node_oh4301304.1 switch=n length=115.406661852719 units=ft geometry=trip-#1/0:trip-#1/0:1 enabled=true phases=1 
new line.oh4301308 bus1=node_oh4301305.1.2.3 bus2=node_oh4301308.1.2.3 switch=n length=423.837124966665 units=ft geometry=#1/0-acsr-6/1:#2-acsr-6/1:3 enabled=true phases=3 
new line.oh4301307 bus1=node_oh4301305.3 bus2=node_oh4301307.3 switch=n length=79.2044803025132 units=ft geometry=trip-#1/0:trip-#1/0:1 enabled=true phases=1 
new line.oh4301309 bus1=node_oh4301308.1.2.3 bus2=node_oh4301309.1.2.3 switch=n length=232.849124112613 units=ft geometry=#1/0-acsr-6/1:#2-acsr-6/1:3 enabled=true phases=3 
new line.oh4301310 bus1=node_oh4301309.1.2.3 bus2=node_oh4301310.1.2.3 switch=n length=265.753123405834 units=ft geometry=#1/0-acsr-6/1:#2-acsr-6/1:3 enabled=true phases=3 
new line.oh4301311 bus1=node_oh4301310.1.2.3 bus2=node_oh4301311.1.2.3 switch=n length=263.548368426081 units=ft geometry=#1/0-acsr-6/1:#2-acsr-6/1:3 enabled=true phases=3 
new line.oh4301312 bus1=node_oh4301311.1.2.3 bus2=node_oh4301312.1.2.3 switch=n length=365.45717259326597 units=ft geometry=#1/0-acsr-6/1:#2-acsr-6/1:3 enabled=true phases=3 
new line.oh4301313 bus1=node_oh4301312.1.2.3 bus2=node_oh4301313.1.2.3 switch=n length=322.559186817066 units=ft geometry=#1/0-acsr-6/1:#2-acsr-6/1:3 enabled=true phases=3 
new line.oh4301314 bus1=node_oh4301313.1.2.3 bus2=node_oh4301314.1.2.3 switch=n length=280.572209778515 units=ft geometry=#1/0-acsr-6/1:#2-acsr-6/1:3 enabled=true phases=3 
new line.oh4301319 bus1=node_oh4301314.1.2.3 bus2=node_oh4301319.1.2.3 switch=n length=287.877839542994 units=ft geometry=#1/0-acsr-6/1:#2-acsr-6/1:3 enabled=true phases=3 
new line.oh4301581 bus1=node_oh4301314.2 bus2=node_oh4301581.2 switch=n length=516.813559032736 units=ft geometry=#4-acsr-7/1:#4-acsr-7/1:1 enabled=true phases=1 
new line.oh4301317 bus1=node_xfmr4301316.1 bus2=node_oh4301317.1 switch=n length=120.45375046039301 units=ft geometry=trip-#1/0:trip-#1/0:1 enabled=true phases=1 
new line.oh4301315 bus1=node_xfmr4301316.1 bus2=node_oh4301315.1 switch=n length=87.2846401149086 units=ft geometry=trip-#1/0:trip-#1/0:1 enabled=true phases=1 
new line.oh4301318 bus1=node_oh4301317.1 bus2=node_oh4301318.1 switch=n length=12.240302283878501 units=ft geometry=trip-#1/0:trip-#1/0:1 enabled=true phases=1 
new line.oh4301328 bus1=node_oh4301319.3 bus2=node_oh4301328.3 switch=n length=502.49068339630895 units=ft geometry=#4-acsr-7/1:#4-acsr-7/1:1 enabled=true phases=1 
new line.oh4301321 bus1=node_oh4301319.1.2.3 bus2=node_oh4301321.1.2.3 switch=n length=70.5820409169658 units=ft geometry=#1/0-acsr-6/1:#2-acsr-6/1:3 enabled=true phases=3 
new line.oh4301320 bus1=node_oh4301319.2 bus2=node_oh4301320.2 switch=n length=73.6776363626985 units=ft geometry=#2-acsr-6/1:#2-acsr-6/1:1 enabled=true phases=1 
new line.oh4301329 bus1=node_oh4301328.3 bus2=node_oh4301329.3 switch=n length=54.321093508920605 units=ft geometry=#4-acsr-7/1:#4-acsr-7/1:1 enabled=true phases=1 
new line.oh4301330 bus1=node_oh4301329.3 bus2=node_oh4301330.3 switch=n length=439.895738669923 units=ft geometry=#4-acsr-7/1:#4-acsr-7/1:1 enabled=true phases=1 
new line.oh4301331 bus1=node_oh4301329.3 bus2=node_oh4301331.3 switch=n length=235.687175722531 units=ft geometry=#4-acsr-7/1:#4-acsr-7/1:1 enabled=true phases=1 
new line.oh4303144 bus1=node_oh4301330.3 bus2=node_oh4303144.3 switch=n length=331.7264609584 units=ft geometry=#4-acsr-7/1:#4-acsr-7/1:1 enabled=true phases=1 
new line.oh4303145 bus1=node_oh4301330.3 bus2=node_oh4303145.3 switch=n length=365.604682956979 units=ft geometry=#4-acsr-7/1:#4-acsr-7/1:1 enabled=true phases=1 
new line.oh4301332 bus1=node_oh4301331.3 bus2=node_oh4301332.3 switch=n length=206.33849131948799 units=ft geometry=#4-acsr-7/1:#4-acsr-7/1:1 enabled=true phases=1 
new line.oh4301340 bus1=node_oh4301332.3 bus2=node_oh4301340.3 switch=n length=244.909334448294 units=ft geometry=#4-acsr-7/1:#4-acsr-7/1:1 enabled=true phases=1 
new line.oh4301334 bus1=node_oh4301332.3 bus2=node_oh4301334.3 switch=n length=648.0969757680909 units=ft geometry=#4-acsr-7/1:#4-acsr-7/1:1 enabled=true phases=1 
new line.oh4301343 bus1=node_oh4301340.3 bus2=node_oh4301343.3 switch=n length=151.193434050581 units=ft geometry=#4-acsr-7/1:#4-acsr-7/1:1 enabled=true phases=1 
new line.oh4301344 bus1=node_oh4301343.3 bus2=node_oh4301344.3 switch=n length=685.110730977346 units=ft geometry=#4-acsr-7/1:#4-acsr-7/1:1 enabled=true phases=1 
new line.oh4301361 bus1=node_oh4301343.3 bus2=node_oh4301361.3 switch=n length=294.092039504655 units=ft geometry=#4-acsr-7/1:#4-acsr-7/1:1 enabled=true phases=1 
new line.oh4301346 bus1=node_oh4301344.3 bus2=node_oh4301346.3 switch=n length=622.234945338098 units=ft geometry=#4-acsr-7/1:#4-acsr-7/1:1 enabled=true phases=1 
new line.oh4301350 bus1=node_oh4301346.3 bus2=node_oh4301350.3 switch=n length=296.712756887942 units=ft geometry=#4-acsr-7/1:#4-acsr-7/1:1 enabled=true phases=1 
new line.oh4301349 bus1=node_xfmr4301351.3 bus2=node_oh4301349.3 switch=n length=25.8000717051307 units=ft geometry=trip-#1/0:trip-#1/0:1 enabled=true phases=1 
new line.oh4301352 bus1=node_xfmr4301353.3 bus2=node_oh4301352.3 switch=n length=28.431763926895698 units=ft geometry=trip-#1/0:trip-#1/0:1 enabled=true phases=1 
new line.oh4301362 bus1=node_oh4301361.3 bus2=node_oh4301362.3 switch=n length=788.792237347837 units=ft geometry=#4-acsr-7/1:#4-acsr-7/1:1 enabled=true phases=1 
new line.oh4301367 bus1=node_oh4301361.3 bus2=node_oh4301367.3 switch=n length=284.39591593398603 units=ft geometry=#4-acsr-7/1:#4-acsr-7/1:1 enabled=true phases=1 
new line.oh4301364 bus1=node_xfmr4300177.3 bus2=node_oh4301364.3 switch=n length=72.83234995522209 units=ft geometry=trip-#1/0:trip-#1/0:1 enabled=true phases=1 
new line.oh4301365 bus1=node_xfmr4300177.3 bus2=node_oh4301365.3 switch=n length=146.549796656305 units=ft geometry=trip-#1/0:trip-#1/0:1 enabled=true phases=1 
new line.oh4301363 bus1=node_oh4301364.3 bus2=node_oh4301363.3 switch=n length=102.122035330332 units=ft geometry=trip-#1/0:trip-#1/0:1 enabled=true phases=1 
new line.oh4301366 bus1=node_oh4301365.3 bus2=node_oh4301366.3 switch=n length=170.161263805968 units=ft geometry=trip-#1/0:trip-#1/0:1 enabled=true phases=1 
new line.oh4301368 bus1=node_oh4301367.3 bus2=node_oh4301368.3 switch=n length=1126.0954646032599 units=ft geometry=#4-acsr-7/1:#4-acsr-7/1:1 enabled=true phases=1 
new line.oh4301375 bus1=node_oh4301367.3 bus2=node_oh4301375.3 switch=n length=367.88369751881106 units=ft geometry=#4-acsr-7/1:#4-acsr-7/1:1 enabled=true phases=1 
new line.oh4301373 bus1=node_oh4301367.3 bus2=node_oh4301373.3 switch=n length=531.922468974597 units=ft geometry=#4-acsr-7/1:#4-acsr-7/1:1 enabled=true phases=1 
new line.oh4301370 bus1=node_xfmr4301371.3 bus2=node_oh4301370.3 switch=n length=85.9469051215477 units=ft geometry=trip-#1/0:trip-#1/0:1 enabled=true phases=1 
new line.oh4301369 bus1=node_xfmr4301371.3 bus2=node_oh4301369.3 switch=n length=39.932549380023 units=ft geometry=trip-#1/0:trip-#1/0:1 enabled=true phases=1 
new line.oh4301383 bus1=node_oh4301375.3 bus2=node_oh4301383.3 switch=n length=300.080217608527 units=ft geometry=#4-acsr-7/1:#4-acsr-7/1:1 enabled=true phases=1 
new line.oh4301378 bus1=node_oh4301375.3 bus2=node_oh4301378.3 switch=n length=464.48990042844497 units=ft geometry=#4-acsr-7/1:#4-acsr-7/1:1 enabled=true phases=1 
new line.oh4301384 bus1=node_oh4301375.3 bus2=node_oh4301384.3 switch=n length=394.391939065543 units=ft geometry=#4-acsr-7/1:#4-acsr-7/1:1 enabled=true phases=1 
new line.oh4301377 bus1=node_xfmr4301376.3 bus2=node_oh4301377.3 switch=n length=72.5119307425173 units=ft geometry=trip-#1/0:trip-#1/0:1 enabled=true phases=1 
new line.oh4301391 bus1=node_oh4301383.3 bus2=node_oh4301391.3 switch=n length=376.78984302151497 units=ft geometry=#4-acsr-7/1:#4-acsr-7/1:1 enabled=true phases=1 
new line.oh4303142 bus1=node_oh4301391.3 bus2=node_oh4303142.3 switch=n length=568.3775682376989 units=ft geometry=#4-acsr-7/1:#4-acsr-7/1:1 enabled=true phases=1 
new line.oh4301392 bus1=node_oh4301391.3 bus2=node_oh4301392.3 switch=n length=117.500611401166 units=ft geometry=#4-acsr-7/1:#4-acsr-7/1:1 enabled=true phases=1 
new line.oh4301396 bus1=node_oh4301391.3 bus2=node_oh4301396.3 switch=n length=234.817330021307 units=ft geometry=#4-acsr-7/1:#4-acsr-7/1:1 enabled=true phases=1 
new line.oh4303143 bus1=node_oh4303142.3 bus2=node_oh4303143.3 switch=n length=360.033920624229 units=ft geometry=#4-acsr-7/1:#4-acsr-7/1:1 enabled=true phases=1 
new line.oh4301393 bus1=node_oh4301392.3 bus2=node_oh4301393.3 switch=n length=95.2017126944559 units=ft geometry=#4-acsr-7/1:#4-acsr-7/1:1 enabled=true phases=1 
new line.oh4300179 bus1=node_oh4301393.3 bus2=node_oh4300179.3 switch=n length=161.855737521702 units=ft geometry=#4-acsr-7/1:#4-acsr-7/1:1 enabled=true phases=1 
new line.oh4301397 bus1=node_oh4301396.3 bus2=node_oh4301397.3 switch=n length=151.42860826155 units=ft geometry=#4-acsr-7/1:#4-acsr-7/1:1 enabled=true phases=1 
new line.oh4301402 bus1=node_oh4301397.3 bus2=node_oh4301402.3 switch=n length=382.381125318711 units=ft geometry=#4-acsr-7/1:#4-acsr-7/1:1 enabled=true phases=1 
new line.oh4301399 bus1=node_xfmr4301400.3 bus2=node_oh4301399.3 switch=n length=72.0312466920754 units=ft geometry=trip-#1/0:trip-#1/0:1 enabled=true phases=1 
new line.oh4301403 bus1=node_oh4301402.3 bus2=node_oh4301403.3 switch=n length=130.741969160729 units=ft geometry=#4-acsr-7/1:#4-acsr-7/1:1 enabled=true phases=1 
new line.oh4301406 bus1=node_oh4301402.3 bus2=node_oh4301406.3 switch=n length=500.53947746394203 units=ft geometry=#4-acsr-7/1:#4-acsr-7/1:1 enabled=true phases=1 
new line.oh4300182 bus1=node_oh4301402.3 bus2=node_oh4300182.3 switch=n length=405.047056648928 units=ft geometry=#4-acsr-7/1:#4-acsr-7/1:1 enabled=true phases=1 
new line.oh4300181 bus1=node_oh4301402.3 bus2=node_oh4300181.3 switch=n length=374.69592965497804 units=ft geometry=#4-acsr-7/1:#4-acsr-7/1:1 enabled=true phases=1 
new line.oh4300183 bus1=node_oh4301403.3 bus2=node_oh4300183.3 switch=n length=379.330718239374 units=ft geometry=#4-acsr-7/1:#4-acsr-7/1:1 enabled=true phases=1 
new line.oh4301409 bus1=node_oh4301406.3 bus2=node_oh4301409.3 switch=n length=498.982515224919 units=ft geometry=#4-acsr-7/1:#4-acsr-7/1:1 enabled=true phases=1 
new line.oh4301407 bus1=node_oh4301406.3 bus2=node_oh4301407.3 switch=n length=138.409880066412 units=ft geometry=#4-acsr-7/1:#4-acsr-7/1:1 enabled=true phases=1 
new line.oh4301410 bus1=node_oh4301409.3 bus2=node_oh4301410.3 switch=n length=441.660478308764 units=ft geometry=#4-acsr-7/1:#4-acsr-7/1:1 enabled=true phases=1 
new line.oh4301411 bus1=node_oh4301410.3 bus2=node_oh4301411.3 switch=n length=452.50069668444803 units=ft geometry=#4-acsr-7/1:#4-acsr-7/1:1 enabled=true phases=1 
new line.oh4300190 bus1=node_oh4301410.3 bus2=node_oh4300190.3 switch=n length=478.696791090085 units=ft geometry=#4-acsr-7/1:#4-acsr-7/1:1 enabled=true phases=1 
new line.oh4300185 bus1=node_oh4301410.3 bus2=node_oh4300185.3 switch=n length=476.291887816705 units=ft geometry=#4-acsr-7/1:#4-acsr-7/1:1 enabled=true phases=1 
new line.oh4301413 bus1=node_oh4301411.3 bus2=node_oh4301413.3 switch=n length=163.243985494158 units=ft geometry=#4-acsr-7/1:#4-acsr-7/1:1 enabled=true phases=1 
new line.oh4301415 bus1=node_oh4301411.3 bus2=node_oh4301415.3 switch=n length=448.212103808106 units=ft geometry=#4-acsr-7/1:#4-acsr-7/1:1 enabled=true phases=1 
new line.oh4300191 bus1=node_oh4301413.3 bus2=node_oh4300191.3 switch=n length=235.227168923961 units=ft geometry=#4-acsr-7/1:#4-acsr-7/1:1 enabled=true phases=1 
new line.oh4307334 bus1=node_oh4300191.3 bus2=node_oh4307334.3 switch=n length=463.445624102837 units=ft geometry=#4-acsr-7/1:#4-acsr-7/1:1 enabled=true phases=1 
new line.oh4307335 bus1=node_oh4307334.3 bus2=node_oh4307335.3 switch=n length=560.31678646993 units=ft geometry=#4-acsr-7/1:#4-acsr-7/1:1 enabled=true phases=1 
new line.oh4307337 bus1=node_xfmr4307338.3 bus2=node_oh4307337.3 switch=n length=150.913443403775 units=ft geometry=trip-#1/0:trip-#1/0:1 enabled=true phases=1 
new line.oh4307336 bus1=node_xfmr4307338.3 bus2=node_oh4307336.3 switch=n length=99.7370106830923 units=ft geometry=trip-#1/0:trip-#1/0:1 enabled=true phases=1 
new line.oh4301417 bus1=node_oh4301415.3 bus2=node_oh4301417.3 switch=n length=452.095451204768 units=ft geometry=#4-acsr-7/1:#4-acsr-7/1:1 enabled=true phases=1 
new line.oh4300192 bus1=node_oh4301415.3 bus2=node_oh4300192.3 switch=n length=489.44235462425695 units=ft geometry=#4-acsr-7/1:#4-acsr-7/1:1 enabled=true phases=1 
new line.oh4301416 bus1=node_xfmr4301420.3 bus2=node_oh4301416.3 switch=n length=113.443402628957 units=ft geometry=trip-#1/0:trip-#1/0:1 enabled=true phases=1 
new line.oh4301421 bus1=node_oh4301417.3 bus2=node_oh4301421.3 switch=n length=213.61567568871 units=ft geometry=#4-acsr-7/1:#4-acsr-7/1:1 enabled=true phases=1 
new line.oh4301423 bus1=node_xfmr4301419.3 bus2=node_oh4301423.3 switch=n length=148.060296163346 units=ft geometry=trip-#1/0:trip-#1/0:1 enabled=true phases=1 
new line.oh4301418 bus1=node_xfmr4301419.3 bus2=node_oh4301418.3 switch=n length=70.68927499984329 units=ft geometry=trip-#1/0:trip-#1/0:1 enabled=true phases=1 
new line.oh4307357 bus1=node_oh4301421.3 bus2=node_oh4307357.3 switch=n length=393.204223400469 units=ft geometry=#4-acsr-7/1:#4-acsr-7/1:1 enabled=true phases=1 
new line.oh4301424 bus1=node_oh4301421.3 bus2=node_oh4301424.3 switch=n length=282.830958878391 units=ft geometry=#4-acsr-7/1:#4-acsr-7/1:1 enabled=true phases=1 
new line.oh4307356 bus1=node_oh4307357.3 bus2=node_oh4307356.3 switch=n length=143.501449818475 units=ft geometry=#4-acsr-7/1:#4-acsr-7/1:1 enabled=true phases=1 
new line.oh4307361 bus1=node_xfmr4307358.3 bus2=node_oh4307361.3 switch=n length=63.1992141478232 units=ft geometry=trip-#1/0:trip-#1/0:1 enabled=true phases=1 
new line.oh4307360 bus1=node_xfmr4307358.3 bus2=node_oh4307360.3 switch=n length=125.304501116272 units=ft geometry=#4-acsr-7/1:#4-acsr-7/1:1 enabled=true phases=1 
new line.oh4307355 bus1=node_oh4307356.3 bus2=node_oh4307355.3 switch=n length=273.267267340856 units=ft geometry=#4-acsr-7/1:#4-acsr-7/1:1 enabled=true phases=1 