new line.back_basin bus1=node_angel_fire.1.2.3 bus2=node_back_basin.1.2.3 switch=y length=0.001 units=ft enabled=true phases=3 
new line.plaza bus1=node_angel_fire.1.2.3 bus2=node_plaza.1.2.3 switch=y length=0.001 units=ft enabled=true phases=3 
new line.black_lake bus1=node_angel_fire.1.2.3 bus2=node_black_lake.1.2.3 switch=y length=0.001 units=ft enabled=true phases=3 
new line.af_eagle_nest bus1=node_angel_fire.1.2.3 bus2=node_af_eagle_nest.1.2.3 switch=y length=0.001 units=ft enabled=true phases=3 
new line.af500 bus1=node_angel_fire.1.2.3 bus2=node_af500.1.2.3 switch=y length=0.001 units=ft enabled=true phases=3 
new line.ocd21004917 bus1=node_ug_4_26_72_2_0001.1.2.3 bus2=node_ocd21004917.1.2.3 switch=y length=0.001 units=ft enabled=true phases=3 
new line.4500009 bus1=node_oh_4_26_73_1_0001.1.2.3 bus2=node_4500009.1.2.3 switch=y length=0.001 units=ft enabled=true phases=3 
new line.4_26_85_2_0001 bus1=node_ug_4_26_85_2_0001.3 bus2=node_4_26_85_2_0001.3 switch=y length=0.001 units=ft enabled=true phases=1 
new line.ocd4302932 bus1=node_oh4307206.1.2.3 bus2=node_ocd4302932.1.2.3 switch=y length=0.001 units=ft enabled=true phases=3 
new line.ocd4302935 bus1=node_ug4307161.1.2.3 bus2=node_ocd4302935.1.2.3 switch=y length=0.001 units=ft enabled=true phases=3 
new line.ocd21004916 bus1=node_ug4500324.1.2.3 bus2=node_ocd21004916.1.2.3 switch=y length=0.001 units=ft enabled=true phases=3 
new line.ocd21004919 bus1=node_ug_4_26_72_2_0004.1.2.3 bus2=node_ocd21004919.1.2.3 switch=y length=0.001 units=ft enabled=true phases=3 
new line.ocd21004957 bus1=node_ug4500390.1.2.3 bus2=node_ocd21004957.1.2.3 switch=y length=0.001 units=ft enabled=true phases=3 
new line.ocd21004993 bus1=node_ug_4_35_10_3_0003.1.2.3 bus2=node_ocd21004993.1.2.3 switch=y length=0.001 units=ft enabled=true phases=3 
new line.ocd21004971 bus1=node_ug_4_35_10_3_0004.1.2.3 bus2=node_ocd21004971.1.2.3 switch=y length=0.001 units=ft enabled=true phases=3 
new line.ocd21004992 bus1=node_ug_4_26_91_3_3.1 bus2=node_ocd21004992.1 switch=y length=0.001 units=ft enabled=true phases=1 
new line.fuse_prefix_4_25_100_1_00 bus1=node_ug_4_35_18_1_0003.1.2.3 bus2=node_fuse_prefix_4_25_100_1_00.1.2.3 switch=y length=0.001 units=ft enabled=true phases=3 
new line.fuse_prefix_4_26_91_2_000 bus1=node_ug_4_26_91_1_0003.1 bus2=node_fuse_prefix_4_26_91_2_000.1 switch=y length=0.001 units=ft enabled=true phases=1 
new line.fuse_prefix_4_26_92_1_000 bus1=node_ug_4_26_92_1_0001.1 bus2=node_fuse_prefix_4_26_92_1_000.1 switch=y length=0.001 units=ft enabled=true phases=1 
new line.fuse_prefix_4_26_92_1_001 bus1=node_ug_4_26_92_1_0002.1 bus2=node_fuse_prefix_4_26_92_1_001.1 switch=y length=0.001 units=ft enabled=true phases=1 
new line.ocd21004959 bus1=node_ug4500046.1.2.3 bus2=node_ocd21004959.1.2.3 switch=y length=0.001 units=ft enabled=true phases=3 
new line.ocd21004960 bus1=node_ug4500045.1.2.3 bus2=node_ocd21004960.1.2.3 switch=y length=0.001 units=ft enabled=true phases=3 
new line.ocd21004989 bus1=node_ug_4_26_82_3_0002.1.2.3 bus2=node_ocd21004989.1.2.3 switch=y length=0.001 units=ft enabled=true phases=3 
new line.ocd21004988 bus1=node_ug_4_26_82_3_0001.1.2.3 bus2=node_ocd21004988.1.2.3 switch=y length=0.001 units=ft enabled=true phases=3 
new line.ocd21004958 bus1=node_ug_4_25_79_2_0001.3 bus2=node_ocd21004958.3 switch=y length=0.001 units=ft enabled=true phases=1 
new line.ocd21004970 bus1=node_ug4500370.1.2.3 bus2=node_ocd21004970.1.2.3 switch=y length=0.001 units=ft enabled=true phases=3 
new line.ocd21004777 bus1=node_ug_4_25_88_1_2.1.2.3 bus2=node_ocd21004777.1.2.3 switch=y length=0.001 units=ft enabled=true phases=3 
new line.ocd21004776 bus1=node_ug_4_25_88_2_0002.1.2.3 bus2=node_ocd21004776.1.2.3 switch=y length=0.001 units=ft enabled=true phases=3 
new line.ocd21004775 bus1=node_ug_4_25_88_2_0001.1.2.3 bus2=node_ocd21004775.1.2.3 switch=y length=0.001 units=ft enabled=true phases=3 
new line.ocd21004774 bus1=node_ug_4_25_78_3_0004.1.2.3 bus2=node_ocd21004774.1.2.3 switch=y length=0.001 units=ft enabled=true phases=3 
new line.ocd21004773 bus1=node_ug_4_25_78_3_0003.1.2.3 bus2=node_ocd21004773.1.2.3 switch=y length=0.001 units=ft enabled=true phases=3 
new line.ocd21004772 bus1=node_ug_4_25_78_3_0002.1.2.3 bus2=node_ocd21004772.1.2.3 switch=y length=0.001 units=ft enabled=true phases=3 
new line.ocd21004771 bus1=node_ug_4_25_78_3_0001.1.2.3 bus2=node_ocd21004771.1.2.3 switch=y length=0.001 units=ft enabled=true phases=3 
new line.ocd21004770 bus1=node_ug_4_25_88_1_0002.1.2.3 bus2=node_ocd21004770.1.2.3 switch=y length=0.001 units=ft enabled=true phases=3 
new line.ocd21004769 bus1=node_ug_4_25_88_1_0001.1.2.3 bus2=node_ocd21004769.1.2.3 switch=y length=0.001 units=ft enabled=true phases=3 
new line.ocd21004768 bus1=node_ug_4_25_87_2_0002.1.2.3 bus2=node_ocd21004768.1.2.3 switch=y length=0.001 units=ft enabled=true phases=3 
new line.ocd21004767 bus1=node_ug_4_25_87_2_0001.1.2.3 bus2=node_ocd21004767.1.2.3 switch=y length=0.001 units=ft enabled=true phases=3 
new line.ocd21004766 bus1=node_ug_4_25_87_4_0002.1.2.3 bus2=node_ocd21004766.1.2.3 switch=y length=0.001 units=ft enabled=true phases=3 
new line.ocd21004765 bus1=node_ug_4_25_87_4_0001.1.2.3 bus2=node_ocd21004765.1.2.3 switch=y length=0.001 units=ft enabled=true phases=3 
new line.ocd21004801 bus1=node_ug_4_25_97_1_0003.1.2.3 bus2=node_ocd21004801.1.2.3 switch=y length=0.001 units=ft enabled=true phases=3 
new line.ocd21004800 bus1=node_ug_4_25_97_1_0002.1.2.3 bus2=node_ocd21004800.1.2.3 switch=y length=0.001 units=ft enabled=true phases=3 
new line.ocd21004799 bus1=node_ug_4_25_97_1_0001.1.2.3 bus2=node_ocd21004799.1.2.3 switch=y length=0.001 units=ft enabled=true phases=3 
new line.ocd21004806 bus1=node_ug_4_25_97_3_0001.1.2.3 bus2=node_ocd21004806.1.2.3 switch=y length=0.001 units=ft enabled=true phases=3 
new line.ocd21004805 bus1=node_ug_4_25_97_3_0003.1.2.3 bus2=node_ocd21004805.1.2.3 switch=y length=0.001 units=ft enabled=true phases=3 
new line.ocd21004804 bus1=node_ug_4_25_97_3_0002.1.2.3 bus2=node_ocd21004804.1.2.3 switch=y length=0.001 units=ft enabled=true phases=3 
new line.ocd21004803 bus1=node_ug_4_25_97_4_0001.1.2.3 bus2=node_ocd21004803.1.2.3 switch=y length=0.001 units=ft enabled=true phases=3 
new line.fuse_prefix_4_35_7_1_0002 bus1=node_ug_4_35_7_1_0002.1.2.3 bus2=node_fuse_prefix_4_35_7_1_0002.1.2.3 switch=y length=0.001 units=ft enabled=true phases=3 
new line.fuse_prefix_4_35_7_1_0001 bus1=node_ug_4_35_7_1_0001.1.2.3 bus2=node_fuse_prefix_4_35_7_1_0001.1.2.3 switch=y length=0.001 units=ft enabled=true phases=3 
new line.fuse_prefix_4_35_7_3_0004 bus1=node_ug_4_35_7_3_0005.1.2.3 bus2=node_fuse_prefix_4_35_7_3_0004.1.2.3 switch=y length=0.001 units=ft enabled=true phases=3 
new line.fuse_prefix_4_35_7_3_0003 bus1=node_ug_4_35_7_3_0003.1.2.3 bus2=node_fuse_prefix_4_35_7_3_0003.1.2.3 switch=y length=0.001 units=ft enabled=true phases=3 
new line.fuse_prefix_4_35_7_3_0002 bus1=node_ug_4_35_7_3_0002.1.2.3 bus2=node_fuse_prefix_4_35_7_3_0002.1.2.3 switch=y length=0.001 units=ft enabled=true phases=3 
new line.fuse_prefix_4_35_7_3_0001 bus1=node_ug_4_35_7_3_0001.1.2.3 bus2=node_fuse_prefix_4_35_7_3_0001.1.2.3 switch=y length=0.001 units=ft enabled=true phases=3 
new line.ocd21004802 bus1=node_ug_4_25_97_2_0001.1 bus2=node_ocd21004802.1 switch=y length=0.001 units=ft enabled=true phases=1 
new line.ocd21004921 bus1=node_ug4500004.1.2.3 bus2=node_ocd21004921.1.2.3 switch=y length=0.001 units=ft enabled=true phases=3 
new line.ocd21004928 bus1=node_ug4500005.1.2.3 bus2=node_ocd21004928.1.2.3 switch=y length=0.001 units=ft enabled=true phases=3 
new line.ocd21004929 bus1=node_ug4500006.1.2.3 bus2=node_ocd21004929.1.2.3 switch=y length=0.001 units=ft enabled=true phases=3 
new line.ocd21004931 bus1=node_ug4600004.1.2.3 bus2=node_ocd21004931.1.2.3 switch=y length=0.001 units=ft enabled=true phases=3 
new line.ocd21004933 bus1=node_ug_4_36_23_3_0001.1.2.3 bus2=node_ocd21004933.1.2.3 switch=y length=0.001 units=ft enabled=true phases=3 
new line.ocd21004935 bus1=node_ug_4_36_23_3_0002.1.2.3 bus2=node_ocd21004935.1.2.3 switch=y length=0.001 units=ft enabled=true phases=3 
new line.ocd21004937 bus1=node_ug_4_36_23_3_0003.1.2.3 bus2=node_ocd21004937.1.2.3 switch=y length=0.001 units=ft enabled=true phases=3 
new line.ocd21004938 bus1=node_ug4600006.1.2.3 bus2=node_ocd21004938.1.2.3 switch=y length=0.001 units=ft enabled=true phases=3 
new line.ocd21004940 bus1=node_ug_4_36_42_2_0006.1.2.3 bus2=node_ocd21004940.1.2.3 switch=y length=0.001 units=ft enabled=true phases=3 
new line.ocd21004986 bus1=node_ug4600096.1.2.3 bus2=node_ocd21004986.1.2.3 switch=y length=0.001 units=ft enabled=true phases=3 
new line.ocd21004944 bus1=node_ug_4_36_62_3_0001.1.2.3 bus2=node_ocd21004944.1.2.3 switch=y length=0.001 units=ft enabled=true phases=3 
new line.4600009 bus1=node_oh4600008.3 bus2=node_4600009.3 switch=y length=0.001 units=ft enabled=true phases=1 
new line.4600008 bus1=node_oh4600009.1.2.3 bus2=node_4600008.1.2.3 switch=y length=0.001 units=ft enabled=true phases=3 
new line.4600010 bus1=node_oh4600010.1.2.3 bus2=node_4600010.1.2.3 switch=y length=0.001 units=ft enabled=true phases=3 
new line.cp571119942 bus1=node_oh4600015.3 bus2=node_cp571119942.3 switch=y length=0.001 units=ft enabled=true phases=1 
new line.4600011 bus1=node_oh4600081.3 bus2=node_4600011.3 switch=y length=0.001 units=ft enabled=true phases=1 
new line.86749-86747-86750 bus1=node_oh4600017.1.2.3 bus2=node_86749-86747-86750.1.2.3 switch=y length=0.001 units=ft enabled=true phases=3 
new line.4600005 bus1=node_oh4600051.3 bus2=node_4600005.3 switch=y length=0.001 units=ft enabled=true phases=1 
new line.4600006 bus1=node_oh4600055.3 bus2=node_4600006.3 switch=y length=0.001 units=ft enabled=true phases=1 
new line.4600004 bus1=node_oh4600046.3 bus2=node_4600004.3 switch=y length=0.001 units=ft enabled=true phases=1 
new line.4600003 bus1=node_oh4600037.3 bus2=node_4600003.3 switch=y length=0.001 units=ft enabled=true phases=1 
new line.4700003 bus1=node_oh4700006.3 bus2=node_4700003.3 switch=y length=0.001 units=ft enabled=true phases=1 
new line.ocd4302830 bus1=node_oh4301589.3 bus2=node_ocd4302830.3 switch=y length=0.001 units=ft enabled=true phases=1 
new line.069860b1-097861-cp5711199 bus1=node_oh42860.1.2.3 bus2=node_069860b1-097861-cp5711199.1.2.3 switch=y length=0.001 units=ft enabled=true phases=3 
new line.ocd4302857 bus1=node_oh4302086.3 bus2=node_ocd4302857.3 switch=y length=0.001 units=ft enabled=true phases=1 
new line.ocd4302859 bus1=node_oh4302103.3 bus2=node_ocd4302859.3 switch=y length=0.001 units=ft enabled=true phases=1 
new line.ocd4302555 bus1=node_oh4302301.3 bus2=node_ocd4302555.3 switch=y length=0.001 units=ft enabled=true phases=1 
new line.ocd4302556 bus1=node_oh4302317.3 bus2=node_ocd4302556.3 switch=y length=0.001 units=ft enabled=true phases=1 
new line.ocd4302557 bus1=node_oh4302325.3 bus2=node_ocd4302557.3 switch=y length=0.001 units=ft enabled=true phases=1 
new line.ocd4302874 bus1=node_oh4302087.3 bus2=node_ocd4302874.3 switch=y length=0.001 units=ft enabled=true phases=1 
new line.ocd4302879 bus1=node_oh4302475.3 bus2=node_ocd4302879.3 switch=y length=0.001 units=ft enabled=true phases=1 
new line.ocd4302881 bus1=node_oh4302485.3 bus2=node_ocd4302881.3 switch=y length=0.001 units=ft enabled=true phases=1 
new line.ocd4302887 bus1=node_oh4302547.3 bus2=node_ocd4302887.3 switch=y length=0.001 units=ft enabled=true phases=1 
new line.ocd4302893 bus1=node_oh4302552.3 bus2=node_ocd4302893.3 switch=y length=0.001 units=ft enabled=true phases=1 
new line.ocd4302898 bus1=node_oh4302565.3 bus2=node_ocd4302898.3 switch=y length=0.001 units=ft enabled=true phases=1 
new line.ocd4304069 bus1=node_oh42978.3 bus2=node_ocd4304069.3 switch=y length=0.001 units=ft enabled=true phases=1 
new line.ocd4307564 bus1=node_oh42973.3 bus2=node_ocd4307564.3 switch=y length=0.001 units=ft enabled=true phases=1 
new line.ocd4304070 bus1=node_oh4302267.3 bus2=node_ocd4304070.3 switch=y length=0.001 units=ft enabled=true phases=1 
new line.ocd4302558 bus1=node_oh42989.3 bus2=node_ocd4302558.3 switch=y length=0.001 units=ft enabled=true phases=1 
new line.ocd4302560 bus1=node_oh42981.3 bus2=node_ocd4302560.3 switch=y length=0.001 units=ft enabled=true phases=1 
new line.fuse_prefix_4_57_18_4_000 bus1=node_ug4307527.3 bus2=node_fuse_prefix_4_57_18_4_000.3 switch=y length=0.001 units=ft enabled=true phases=1 
new line.ocd4302559 bus1=node_oh42987.3 bus2=node_ocd4302559.3 switch=y length=0.001 units=ft enabled=true phases=1 
new line.ocd4302883 bus1=node_oh4302492.3 bus2=node_ocd4302883.3 switch=y length=0.001 units=ft enabled=true phases=1 
new line.44064 bus1=node_oh42859.3 bus2=node_44064.3 switch=y length=0.001 units=ft enabled=true phases=1 
new line.ocd4302553 bus1=node_oh43238.3 bus2=node_ocd4302553.3 switch=y length=0.001 units=ft enabled=true phases=1 
new line.ocd4302554 bus1=node_oh43241.3 bus2=node_ocd4302554.3 switch=y length=0.001 units=ft enabled=true phases=1 
new line.ocd4303232 bus1=node_oh4303230.3 bus2=node_ocd4303232.3 switch=y length=0.001 units=ft enabled=true phases=1 
new line.ocd4302855 bus1=node_ug4303233.3 bus2=node_ocd4302855.3 switch=y length=0.001 units=ft enabled=true phases=1 
new line.ocd4308071 bus1=node_oh4303234.3 bus2=node_ocd4308071.3 switch=y length=0.001 units=ft enabled=true phases=1 
new line.fuse_prefix_4_56_39_3_000 bus1=node_ug4303237.3 bus2=node_fuse_prefix_4_56_39_3_000.3 switch=y length=0.001 units=ft enabled=true phases=1 
new line.fuse_prefix_4_56_38_3_000 bus1=node_ug4303247.3 bus2=node_fuse_prefix_4_56_38_3_000.3 switch=y length=0.001 units=ft enabled=true phases=1 
new line.ocd4302551 bus1=node_oh42847.3 bus2=node_ocd4302551.3 switch=y length=0.001 units=ft enabled=true phases=1 
new line.ocd4302328 bus1=node_oh42847.3 bus2=node_ocd4302328.3 switch=y length=0.001 units=ft enabled=true phases=1 
new line.4700014 bus1=node_oh4700147.3 bus2=node_4700014.3 switch=y length=0.001 units=ft enabled=true phases=1 
new line.4700016 bus1=node_oh4700148.3 bus2=node_4700016.3 switch=y length=0.001 units=ft enabled=true phases=1 
new line.4700015 bus1=node_oh4700148.3 bus2=node_4700015.3 switch=y length=0.001 units=ft enabled=true phases=1 
new line.4700017 bus1=node_oh4700149.3 bus2=node_4700017.3 switch=y length=0.001 units=ft enabled=true phases=1 
new line.4700018 bus1=node_oh4700150.3 bus2=node_4700018.3 switch=y length=0.001 units=ft enabled=true phases=1 
new line.4600012 bus1=node_oh4600029.3 bus2=node_4600012.3 switch=y length=0.001 units=ft enabled=true phases=1 
new line.4700006 bus1=node_oh4700056.3 bus2=node_4700006.3 switch=y length=0.001 units=ft enabled=true phases=1 
new line.4700002 bus1=node_oh4700047.3 bus2=node_4700002.3 switch=y length=0.001 units=ft enabled=true phases=1 
new line.ocd4302547 bus1=node_oh43133.3 bus2=node_ocd4302547.3 switch=y length=0.001 units=ft enabled=true phases=1 
new line.4700004 bus1=node_oh4700034.3 bus2=node_4700004.3 switch=y length=0.001 units=ft enabled=true phases=1 
new line.4700005 bus1=node_oh4700028.3 bus2=node_4700005.3 switch=y length=0.001 units=ft enabled=true phases=1 
new line.d179699a5 bus1=node_oh4700008.3 bus2=node_d179699a5.3 switch=y length=0.001 units=ft enabled=true phases=1 
new line.cp571113950 bus1=node_oh4600028.3 bus2=node_cp571113950.3 switch=y length=0.001 units=ft enabled=true phases=1 
new line.4700012 bus1=node_oh4700095.3 bus2=node_4700012.3 switch=y length=0.001 units=ft enabled=true phases=1 
new line.4700013 bus1=node_oh4700098.3 bus2=node_4700013.3 switch=y length=0.001 units=ft enabled=true phases=1 
new line.4700008 bus1=node_oh4700121.3 bus2=node_4700008.3 switch=y length=0.001 units=ft enabled=true phases=1 
new line.4700009 bus1=node_oh4700122.3 bus2=node_4700009.3 switch=y length=0.001 units=ft enabled=true phases=1 
new line.4700007 bus1=node_oh4700115.3 bus2=node_4700007.3 switch=y length=0.001 units=ft enabled=true phases=1 
new line.4700010 bus1=node_oh4700127.3 bus2=node_4700010.3 switch=y length=0.001 units=ft enabled=true phases=1 
new line.4700011 bus1=node_oh4700135.3 bus2=node_4700011.3 switch=y length=0.001 units=ft enabled=true phases=1 
new line.ocd21002101 bus1=node_ug4500258.1.2.3 bus2=node_ocd21002101.1.2.3 switch=y length=0.001 units=ft enabled=true phases=3 
new line.4500027 bus1=node_ug4500319.1.2.3 bus2=node_4500027.1.2.3 switch=y length=0.001 units=ft enabled=true phases=3 
new line.4500005 bus1=node_oh4500026.1 bus2=node_4500005.1 switch=y length=0.001 units=ft enabled=true phases=1 
new line.4500008 bus1=node_oh4500032.1 bus2=node_4500008.1 switch=y length=0.001 units=ft enabled=true phases=1 
new line.4500006 bus1=node_oh4500032.2 bus2=node_4500006.2 switch=y length=0.001 units=ft enabled=true phases=1 
new line.4500007 bus1=node_oh4500032.3 bus2=node_4500007.3 switch=y length=0.001 units=ft enabled=true phases=1 
new line.ocd4306761 bus1=node_oh4306759.3 bus2=node_ocd4306761.3 switch=y length=0.001 units=ft enabled=true phases=1 
new line.ocd4306789 bus1=node_oh4306787.3 bus2=node_ocd4306789.3 switch=y length=0.001 units=ft enabled=true phases=1 
new line.ocd21003145 bus1=node_ug4306805.3 bus2=node_ocd21003145.3 switch=y length=0.001 units=ft enabled=true phases=1 
new line.ocd21003144 bus1=node_ug21003140.3 bus2=node_ocd21003144.3 switch=y length=0.001 units=ft enabled=true phases=1 
new line.ocd21003146 bus1=node_ug4306804.3 bus2=node_ocd21003146.3 switch=y length=0.001 units=ft enabled=true phases=1 
new line.ocd21003148 bus1=node_ug4306795.3 bus2=node_ocd21003148.3 switch=y length=0.001 units=ft enabled=true phases=1 
new line.4500025 bus1=node_oh4500014.1.2.3 bus2=node_4500025.1.2.3 switch=y length=0.001 units=ft enabled=true phases=3 
new line.ocd21004922 bus1=node_ug4500362.1.2.3 bus2=node_ocd21004922.1.2.3 switch=y length=0.001 units=ft enabled=true phases=3 
new line.ocd21004925 bus1=node_ug_4_26_72_1_0001.3 bus2=node_ocd21004925.3 switch=y length=0.001 units=ft enabled=true phases=1 
new line.4500001 bus1=node_oh_4_26_62_1_0001.1.2.3 bus2=node_4500001.1.2.3 switch=y length=0.001 units=ft enabled=true phases=3 
new line.4500026 bus1=node_oh4500074.1.2.3 bus2=node_4500026.1.2.3 switch=y length=0.001 units=ft enabled=true phases=3 
new line.4500004 bus1=node_oh4500019.3 bus2=node_4500004.3 switch=y length=0.001 units=ft enabled=true phases=1 
new line.4400002 bus1=node_oh4400005.1.2.3 bus2=node_4400002.1.2.3 switch=y length=0.001 units=ft enabled=true phases=3 
new line.4400024 bus1=node_oh4400202.3 bus2=node_4400024.3 switch=y length=0.001 units=ft enabled=true phases=1 
new line.4400025 bus1=node_oh4400204.3 bus2=node_4400025.3 switch=y length=0.001 units=ft enabled=true phases=1 


new line.4400026 bus1=node_oh4400207.3 bus2=node_4400026.3 switch=y length=0.001 units=ft enabled=true phases=1 


new line.4400023 bus1=node_ug4400037.3 bus2=node_4400023.3 switch=y length=0.001 units=ft enabled=true phases=1 
new line.4500011 bus1=node_oh4500049.3 bus2=node_4500011.3 switch=y length=0.001 units=ft enabled=true phases=1 
new line.4500010 bus1=node_ug4500321.3 bus2=node_4500010.3 switch=y length=0.001 units=ft enabled=true phases=1 
new line.4400003 bus1=node_oh4400007.3 bus2=node_4400003.3 switch=y length=0.001 units=ft enabled=true phases=1 
new line.ocd4302993 bus1=node_oh4307131.3 bus2=node_ocd4302993.3 switch=y length=0.001 units=ft enabled=true phases=1 
new line.07995a2-55247-75634 bus1=node_oh4400020.1.2.3 bus2=node_07995a2-55247-75634.1.2.3 switch=y length=0.001 units=ft enabled=true phases=3 
new line.4400027 bus1=node_oh4400213.1.2.3 bus2=node_4400027.1.2.3 switch=y length=0.001 units=ft enabled=true phases=3 
new line.4400028 bus1=node_oh4400222.2 bus2=node_4400028.2 switch=y length=0.001 units=ft enabled=true phases=1 
new line.4400029 bus1=node_oh4400235.2 bus2=node_4400029.2 switch=y length=0.001 units=ft enabled=true phases=1 
new line.4400006 bus1=node_oh4400022.1.2.3 bus2=node_4400006.1.2.3 switch=y length=0.001 units=ft enabled=true phases=3 
new line.4400030 bus1=node_oh4400241.2 bus2=node_4400030.2 switch=y length=0.001 units=ft enabled=true phases=1 
new line.4400007 bus1=node_oh4400036.1 bus2=node_4400007.1 switch=y length=0.001 units=ft enabled=true phases=1 
new line.c190004b5 bus1=node_oh4400052.1 bus2=node_c190004b5.1 switch=y length=0.001 units=ft enabled=true phases=1 
new line.4400018 bus1=node_oh4400085.1 bus2=node_4400018.1 switch=y length=0.001 units=ft enabled=true phases=1 
new line.4400019 bus1=node_ug4400007.1 bus2=node_4400019.1 switch=y length=0.001 units=ft enabled=true phases=1 
new line.4400022 bus1=node_oh4400171.1 bus2=node_4400022.1 switch=y length=0.001 units=ft enabled=true phases=1 
new line.4400020 bus1=node_oh4400142.1 bus2=node_4400020.1 switch=y length=0.001 units=ft enabled=true phases=1 
new line.4300001 bus1=node_ug4300004.1 bus2=node_4300001.1 switch=y length=0.001 units=ft enabled=true phases=1 
new line.4400021 bus1=node_oh4400143.1 bus2=node_4400021.1 switch=y length=0.001 units=ft enabled=true phases=1 
new line.4400012 bus1=node_oh4400069.3 bus2=node_4400012.3 switch=y length=0.001 units=ft enabled=true phases=1 
new line.4400013 bus1=node_oh4400069.3 bus2=node_4400013.3 switch=y length=0.001 units=ft enabled=true phases=1 
new line.4400014 bus1=node_oh4400071.3 bus2=node_4400014.3 switch=y length=0.001 units=ft enabled=true phases=1 
new line.ocd4307089 bus1=node_oh4300004.3 bus2=node_ocd4307089.3 switch=y length=0.001 units=ft enabled=true phases=1 
new line.097853 bus1=node_oh21000024.3 bus2=node_097853.3 switch=y length=0.001 units=ft enabled=true phases=1 
new line.4400016 bus1=node_oh4400079.1.2.3 bus2=node_4400016.1.2.3 switch=y length=0.001 units=ft enabled=true phases=3 
new line.4400017 bus1=node_oh4400079.3 bus2=node_4400017.3 switch=y length=0.001 units=ft enabled=true phases=1 
new line.4400015 bus1=node_oh4400077.3 bus2=node_4400015.3 switch=y length=0.001 units=ft enabled=true phases=1 
new line.4400011 bus1=node_oh4400059.1 bus2=node_4400011.1 switch=y length=0.001 units=ft enabled=true phases=1 
new line.4400008 bus1=node_oh4400043.1.2.3 bus2=node_4400008.1.2.3 switch=y length=0.001 units=ft enabled=true phases=3 
new line.4390001 bus1=node_oh4390003.3 bus2=node_4390001.3 switch=y length=0.001 units=ft enabled=true phases=1 
new line.4_15_95_4_0001 bus1=node_ug4390020.3 bus2=node_4_15_95_4_0001.3 switch=y length=0.001 units=ft enabled=true phases=1 
new line.4400033 bus1=node_oh4400272.2 bus2=node_4400033.2 switch=y length=0.001 units=ft enabled=true phases=1 
new line.4400031 bus1=node_oh4400259.3 bus2=node_4400031.3 switch=y length=0.001 units=ft enabled=true phases=1 
new line.4400032 bus1=node_oh4400260.3 bus2=node_4400032.3 switch=y length=0.001 units=ft enabled=true phases=1 
new line.4400009 bus1=node_oh4400051.3 bus2=node_4400009.3 switch=y length=0.001 units=ft enabled=true phases=1 
new line.fuse_prefix_4_25_19_1_000 bus1=node_4400009.3 bus2=node_fuse_prefix_4_25_19_1_000.3 switch=y length=0.001 units=ft enabled=true phases=1 
new line.4400004 bus1=node_oh4400008.3 bus2=node_4400004.3 switch=y length=0.001 units=ft enabled=true phases=1 
new line.4400001 bus1=node_oh4400003.1.2.3 bus2=node_4400001.1.2.3 switch=y length=0.001 units=ft enabled=true phases=3 
new line.4500003 bus1=node_oh4500018.1.2.3 bus2=node_4500003.1.2.3 switch=y length=0.001 units=ft enabled=true phases=3 
new line.4500002 bus1=node_oh4500015.3 bus2=node_4500002.3 switch=y length=0.001 units=ft enabled=true phases=1 
new line.ocd21004932 bus1=node_ug_4_36_42_2_0002.1.2.3 bus2=node_ocd21004932.1.2.3 switch=y length=0.001 units=ft enabled=true phases=3 
new line.ocd21004934 bus1=node_ug_4_36_42_2_0003.1.2.3 bus2=node_ocd21004934.1.2.3 switch=y length=0.001 units=ft enabled=true phases=3 
new line.ocd21004936 bus1=node_ug_4_36_42_2_0004.1.2.3 bus2=node_ocd21004936.1.2.3 switch=y length=0.001 units=ft enabled=true phases=3 
new line.ocd21004939 bus1=node_ug_4_36_42_2_0005.1.2.3 bus2=node_ocd21004939.1.2.3 switch=y length=0.001 units=ft enabled=true phases=3 
new line.ocd21004941 bus1=node_ug_4_36_42_2_0007.1.2.3 bus2=node_ocd21004941.1.2.3 switch=y length=0.001 units=ft enabled=true phases=3 
new line.ocd21004942 bus1=node_ug_4_36_42_2_0009.1.2.3 bus2=node_ocd21004942.1.2.3 switch=y length=0.001 units=ft enabled=true phases=3 
new line.ocd21004943 bus1=node_ug_4_36_42_2_0010.1.2.3 bus2=node_ocd21004943.1.2.3 switch=y length=0.001 units=ft enabled=true phases=3 
new line.ocd21004930 bus1=node_ug4500360.1.2.3 bus2=node_ocd21004930.1.2.3 switch=y length=0.001 units=ft enabled=true phases=3 
new line.fuse_prefix_4_36_2_3_0001 bus1=node_ug4500339.1.2.3 bus2=node_fuse_prefix_4_36_2_3_0001.1.2.3 switch=y length=0.001 units=ft enabled=true phases=3 
new line.fuse_prefix_4_36_2_3_0002 bus1=node_ug_4_36_2_3_0006.1 bus2=node_fuse_prefix_4_36_2_3_0002.1 switch=y length=0.001 units=ft enabled=true phases=1 
new line.fuse_prefix_4_36_1_3_0001 bus1=node_ug4500040.3 bus2=node_fuse_prefix_4_36_1_3_0001.3 switch=y length=0.001 units=ft enabled=true phases=1 
new line.ocd21004972 bus1=node_ug_4_35_18_1_0004.1.2.3 bus2=node_ocd21004972.1.2.3 switch=y length=0.001 units=ft enabled=true phases=3 
new line.ocd21004962 bus1=node_ug_4_35_18_1_0005.1.2.3 bus2=node_ocd21004962.1.2.3 switch=y length=0.001 units=ft enabled=true phases=3 
new line.ocd21004963 bus1=node_ug_4_35_18_1_0001.1.2.3 bus2=node_ocd21004963.1.2.3 switch=y length=0.001 units=ft enabled=true phases=3 
new line.ocd21004964 bus1=node_ug_4_35_18_1_0002.1.2.3 bus2=node_ocd21004964.1.2.3 switch=y length=0.001 units=ft enabled=true phases=3 
new line.fuse_prefix_4_35_8_3_2 bus1=node_ug_4_35_7_4_0001.1.2.3 bus2=node_fuse_prefix_4_35_8_3_2.1.2.3 switch=y length=0.001 units=ft enabled=true phases=3 
new line.fuse_prefix_4_35_8_3_0002 bus1=node_ug_4_35_8_3_2.1.2.3 bus2=node_fuse_prefix_4_35_8_3_0002.1.2.3 switch=y length=0.001 units=ft enabled=true phases=3 
new line.fuse_prefix_4_35_8_3_0003 bus1=node_ug_4_35_8_3_0002.1.2.3 bus2=node_fuse_prefix_4_35_8_3_0003.1.2.3 switch=y length=0.001 units=ft enabled=true phases=3 
new line.fuse_prefix_4_35_8_3_0004 bus1=node_ug_4_35_8_3_0003.1.2.3 bus2=node_fuse_prefix_4_35_8_3_0004.1.2.3 switch=y length=0.001 units=ft enabled=true phases=3 
new line.fuse_prefix_4_35_7_4_0002 bus1=node_ug_4_35_8_3_0004.1.2.3 bus2=node_fuse_prefix_4_35_7_4_0002.1.2.3 switch=y length=0.001 units=ft enabled=true phases=3 
new line.fuse_prefix_4_35_7_2_0001 bus1=node_ug_4_35_7_4_0002.1.2.3 bus2=node_fuse_prefix_4_35_7_2_0001.1.2.3 switch=y length=0.001 units=ft enabled=true phases=3 
new line.fuse_prefix_4_35_7_2_0002 bus1=node_ug_4_35_7_2_0001.1.2.3 bus2=node_fuse_prefix_4_35_7_2_0002.1.2.3 switch=y length=0.001 units=ft enabled=true phases=3 
new line.fuse_prefix_4_35_8_1_0001 bus1=node_ug_4_35_7_2_0002.1.2.3 bus2=node_fuse_prefix_4_35_8_1_0001.1.2.3 switch=y length=0.001 units=ft enabled=true phases=3 
new line.ocd21004965 bus1=node_ug_4_35_8_1_0001.1.2.3 bus2=node_ocd21004965.1.2.3 switch=y length=0.001 units=ft enabled=true phases=3 
new line.ocd21004949 bus1=node_ug_4_25_98_3_0001.1.2.3 bus2=node_ocd21004949.1.2.3 switch=y length=0.001 units=ft enabled=true phases=3 
new line.ocd21004950 bus1=node_ug_4_25_98_3_0002.1.2.3 bus2=node_ocd21004950.1.2.3 switch=y length=0.001 units=ft enabled=true phases=3 
new line.ocd21004951 bus1=node_ug_4_25_98_3_0003.1.2.3 bus2=node_ocd21004951.1.2.3 switch=y length=0.001 units=ft enabled=true phases=3 
new line.ocd21004952 bus1=node_ug_4_25_98_3_0004.1.2.3 bus2=node_ocd21004952.1.2.3 switch=y length=0.001 units=ft enabled=true phases=3 
new line.ocd21004985 bus1=node_ug_4_25_98_1_0001.1.2.3 bus2=node_ocd21004985.1.2.3 switch=y length=0.001 units=ft enabled=true phases=3 
new line.ocd21004953 bus1=node_ug_4_25_98_1_0003.1.2.3 bus2=node_ocd21004953.1.2.3 switch=y length=0.001 units=ft enabled=true phases=3 
new line.ocd21004954 bus1=node_ug_4_25_98_1_0002.1.2.3 bus2=node_ocd21004954.1.2.3 switch=y length=0.001 units=ft enabled=true phases=3 
new line.ocd21004955 bus1=node_ug_4_25_88_4_0002.1.2.3 bus2=node_ocd21004955.1.2.3 switch=y length=0.001 units=ft enabled=true phases=3 
new line.ocd21004956 bus1=node_ug_4_25_88_4_0003.1.2.3 bus2=node_ocd21004956.1.2.3 switch=y length=0.001 units=ft enabled=true phases=3 
new line.ocd21004946 bus1=node_ug_4_25_88_4_0001.1.2.3 bus2=node_ocd21004946.1.2.3 switch=y length=0.001 units=ft enabled=true phases=3 
new line.ocd21004947 bus1=node_ug_4_25_88_2_2.1.2.3 bus2=node_ocd21004947.1.2.3 switch=y length=0.001 units=ft enabled=true phases=3 
new line.ocd21004948 bus1=node_ug_4_25_88_2_3.1.2.3 bus2=node_ocd21004948.1.2.3 switch=y length=0.001 units=ft enabled=true phases=3 
new line.ocd21004798 bus1=node_ug_4_35_17_3_0001.1.2.3 bus2=node_ocd21004798.1.2.3 switch=y length=0.001 units=ft enabled=true phases=3 
new line.other_device_prefix_4_35_ bus1=node_ug_4_35_36_2_0002.3 bus2=node_other_device_prefix_4_35_.3 switch=y length=0.001 units=ft enabled=true phases=1 
new line.fuse_prefix_4_35_36_4_000 bus1=node_ug_4_35_36_4_0003.3 bus2=node_fuse_prefix_4_35_36_4_000.3 switch=y length=0.001 units=ft enabled=true phases=1 
new line.ocd21000321 bus1=node_ug4590006.3 bus2=node_ocd21000321.3 switch=y length=0.001 units=ft enabled=true phases=1 
new line.ocd21003408 bus1=node_ug4590010.3 bus2=node_ocd21003408.3 switch=y length=0.001 units=ft enabled=true phases=1 
new line.fuse_prefix_4_35_7_4_0001 bus1=node_ug_4_35_17_2_0001.1.2.3 bus2=node_fuse_prefix_4_35_7_4_0001.1.2.3 switch=y length=0.001 units=ft enabled=true phases=3 
new line.ocd21004998 bus1=node_ug4500161.1.2.3 bus2=node_ocd21004998.1.2.3 switch=y length=0.001 units=ft enabled=true phases=3 
new line.ocd21004987 bus1=node_ug4500255.1.2.3 bus2=node_ocd21004987.1.2.3 switch=y length=0.001 units=ft enabled=true phases=3 
new line.ocd21004996 bus1=node_ug_4_35_19_2_0002.1 bus2=node_ocd21004996.1 switch=y length=0.001 units=ft enabled=true phases=1 