new line.angle_fire_ug4500008 bus1=node_back_basin.1.2.3 bus2=node_ug4500008.1.2.3 switch=n length=1541.33493095103 units=ft geometry=500-mcm-25kv-jacc:500-mcm-25kv-jacc:3 enabled=true phases=3 
new line.angle_fire_ug_4_26_72_2_0002 bus1=node_ocd21004917.1.2.3 bus2=node_ug_4_26_72_2_0002.1.2.3 switch=n length=333.131551068113 units=ft geometry=500-mcm-25kv-jacc:500-mcm-25kv-jacc:3 enabled=true phases=3 
new line.angle_fire_oh4500056 bus1=node_oh_4_26_73_1_0001.1.2.3 bus2=node_oh4500056.1.2.3 switch=n length=471.205403442415 units=ft geometry=500mcm-25kvrn:#4/0-acsr-6/1:3 enabled=true phases=3 
new line.angle_fire_ug4306328 bus1=node_ug_4_26_85_2_0001.1.2.3 bus2=node_ug4306328.1.2.3 switch=n length=681.512574314945 units=ft geometry=#4/0-25kv-jac:#4/0-25kv-jac:3 enabled=true phases=3 
new line.angle_fire_ug4303561 bus1=node_ug_4_26_85_2_0001.3 bus2=node_ug4303561.3 switch=n length=1035.58586804682 units=ft geometry=#4/0-25kv-jac:#4/0-25kv-jac:1 enabled=true phases=1 
new line.angle_fire_oh4307207 bus1=node_oh4307206.2 bus2=node_oh4307207.2 switch=n length=157.731210608537 units=ft geometry=none:none:1 enabled=true phases=1 
new line.angle_fire_ug4302949 bus1=node_oh4307206.1.2.3 bus2=node_ug4302949.1.2.3 switch=n length=52.6446064752487 units=ft geometry=#4/0-25kv-jac:#4/0-25kv-jac:3 enabled=true phases=3 
new line.angle_fire_oh4307162 bus1=node_ug4307161.1.2.3 bus2=node_oh4307162.1.2.3 switch=n length=394.144357437604 units=ft geometry=500mcm-25kvrn:#4/0-acsr-6/1:3 enabled=true phases=3 
new line.angle_fire_ug4500324 bus1=node_plaza.1.2.3 bus2=node_ug4500324.1.2.3 switch=n length=1553.04979244688 units=ft geometry=500-mcm-25kv-jacc:500-mcm-25kv-jacc:3 enabled=true phases=3 
new line.angle_fire_ug4500325 bus1=node_ocd21004916.1.2.3 bus2=node_ug4500325.1.2.3 switch=n length=324.959903786974 units=ft geometry=500-mcm-25kv-jacc:500-mcm-25kv-jacc:3 enabled=true phases=3 
new line.angle_fire_ug4500002 bus1=node_black_lake.1.2.3 bus2=node_ug4500002.1.2.3 switch=n length=1666.66091236599 units=ft geometry=#4/0-25kv-jac:#4/0-25kv-jac:3 enabled=true phases=3 
new line.angle_fire_ug4500030 bus1=node_ocd21004919.1.2.3 bus2=node_ug4500030.1.2.3 switch=n length=1565.39007151759 units=ft geometry=#4/0-25kv-jac:#4/0-25kv-jac:3 enabled=true phases=3 
new line.angle_fire_ug_4_25_79_2_0001 bus1=node_ocd21004957.1.2.3 bus2=node_ug_4_25_79_2_0001.1.2.3 switch=n length=587.358778276046 units=ft geometry=#4/0-25kv-jac:#4/0-25kv-jac:3 enabled=true phases=3 
new line.angle_fire_ug4500035 bus1=node_ocd21004957.1.2.3 bus2=node_ug4500035.1.2.3 switch=n length=4.37701466500211 units=ft geometry=#4/0-25kv-rn:#4/0-25kv-rn:3 enabled=true phases=3 
new line.angle_fire_ug_4_35_10_3_0004 bus1=node_ocd21004993.1.2.3 bus2=node_ug_4_35_10_3_0004.1.2.3 switch=n length=5746.31777790712 units=ft geometry=#4/0-25kv-jac:#4/0-25kv-jac:3 enabled=true phases=3 
new line.angle_fire_ug_4_25_100_1_0002 bus1=node_ocd21004993.1 bus2=node_ug_4_25_100_1_0002.1 switch=n length=344.336751725698 units=ft geometry=#1/0-25kv-jac:#1/0-25kv-jac:1 enabled=true phases=1 
new line.angle_fire_ug_4_35_9_4_0001 bus1=node_ocd21004971.3 bus2=node_ug_4_35_9_4_0001.3 switch=n length=553.713272629192 units=ft geometry=#4/0-25kv-jac:#4/0-25kv-jac:1 enabled=true phases=1 
new line.angle_fire_ug_4_35_10_3_0002 bus1=node_ocd21004971.1.2.3 bus2=node_ug_4_35_10_3_0002.1.2.3 switch=n length=716.525486721451 units=ft geometry=#4/0-25kv-jac:#4/0-25kv-jac:3 enabled=true phases=3 
new line.angle_fire_ug_4_26_91_3_4 bus1=node_ocd21004992.1 bus2=node_ug_4_26_91_3_4.1 switch=n length=39.3186004424967 units=ft geometry=#1/0-25kv-jac:#1/0-25kv-jac:1 enabled=true phases=1 
new line.angle_fire_ug_4_26_91_3_0001 bus1=node_ocd21004992.1 bus2=node_ug_4_26_91_3_0001.1 switch=n length=185.918520128822 units=ft geometry=#1/0-25kv-jac:#1/0-25kv-jac:1 enabled=true phases=1 
new line.angle_fire_ug_4_35_10_3_0003 bus1=node_ug_4_35_18_1_0003.1.2.3 bus2=node_ug_4_35_10_3_0003.1.2.3 switch=n length=703.412368144495 units=ft geometry=#4/0-25kv-jac:#4/0-25kv-jac:3 enabled=true phases=3 
new line.angle_fire_ug_4_25_100_1_0001 bus1=node_fuse_prefix_4_25_100_1_00.1 bus2=node_ug_4_25_100_1_0001.1 switch=n length=431.290592021739 units=ft geometry=#1/0-25kv-jac:#1/0-25kv-jac:1 enabled=true phases=1 
new line.angle_fire_ug_4_26_91_2_0004 bus1=node_fuse_prefix_4_26_91_2_000.1 bus2=node_ug_4_26_91_2_0004.1 switch=n length=227.673926279269 units=ft geometry=#1/0-25kv-jac:#1/0-25kv-jac:1 enabled=true phases=1 
new line.angle_fire_ug_4_26_92_1_0002 bus1=node_fuse_prefix_4_26_92_1_000.1 bus2=node_ug_4_26_92_1_0002.1 switch=n length=4.03446370864573 units=ft geometry=#1/0-25kv-jac:#1/0-25kv-jac:1 enabled=true phases=1 
new line.angle_fire_ug_4_26_82_3_0001 bus1=node_ug4500046.1.2.3 bus2=node_ug_4_26_82_3_0001.1.2.3 switch=n length=1429.109109028 units=ft geometry=#1/0-25kv-jac:#1/0-25kv-jac:3 enabled=true phases=3 
new line.angle_fire_ug_4_26_72_4_0002 bus1=node_ocd21004959.1.2.3 bus2=node_ug_4_26_72_4_0002.1.2.3 switch=n length=339.470546723529 units=ft geometry=#1/0-25kv-jac:#1/0-25kv-jac:3 enabled=true phases=3 
new line.angle_fire_ug4500045 bus1=node_ocd21004959.1.2.3 bus2=node_ug4500045.1.2.3 switch=n length=160.184928277115 units=ft geometry=#1/0-25kv-jac:#1/0-25kv-jac:3 enabled=true phases=3 
new line.angle_fire_ug_4_26_72_4_0003 bus1=node_ocd21004960.1.2.3 bus2=node_ug_4_26_72_4_0003.1.2.3 switch=n length=32.1209880417507 units=ft geometry=#1/0-25kv-jac:#1/0-25kv-jac:3 enabled=true phases=3 
!new line.angle_fire_[set_later] bus1=node_ug_4_26_82_3_0002.1.2.3 bus2=node_[set_later].1.2.3 switch=n length=339.96961347521 units=ft geometry=#1/0-25kv-jac:#1/0-25kv-jac:3 enabled=true phases=3 
!new line.angle_fire_[set_later]2 bus1=node_ocd21004989.1.2.3 bus2=node_[set_later]2.1.2.3 switch=n length=339.96961347521 units=ft geometry=#1/0-25kv-jac:#1/0-25kv-jac:3 enabled=true phases=3 
new line.angle_fire_ug_4_26_82_3_0003 bus1=node_ocd21004989.1 bus2=node_ug_4_26_82_3_0003.1 switch=n length=15.6490940777643 units=ft geometry=#1/0-25kv-jac:#1/0-25kv-jac:1 enabled=true phases=1 
new line.angle_fire_ug_4_26_82_3_0002 bus1=node_ug_4_26_82_3_0001.1.2.3 bus2=node_ug_4_26_82_3_0002.1.2.3 switch=n length=648.180746530592 units=ft geometry=#1/0-25kv-jac:#1/0-25kv-jac:3 enabled=true phases=3 
new line.angle_fire_ug_4_25_79_2_3 bus1=node_ug_4_25_79_2_0001.1.2.3 bus2=node_ug_4_25_79_2_3.1.2.3 switch=n length=1394.47495871993 units=ft geometry=#1/0-15kv-fn:#1/0-15kv-fn:3 enabled=true phases=3 
new line.angle_fire_ug_4_25_90_1_0001 bus1=node_ug_4_25_79_2_0001.1.2.3 bus2=node_ug_4_25_90_1_0001.1.2.3 switch=n length=420.728378395904 units=ft geometry=#4/0-25kv-jac:#4/0-25kv-jac:3 enabled=true phases=3 
new line.angle_fire_ug_4_25_79_2_0002 bus1=node_ocd21004958.3 bus2=node_ug_4_25_79_2_0002.3 switch=n length=710.440185533987 units=ft geometry=#1/0-15kv-fn:#1/0-15kv-fn:1 enabled=true phases=1 
new line.angle_fire_ug_4_25_78_4_0001 bus1=node_ug4500370.1.2.3 bus2=node_ug_4_25_78_4_0001.1.2.3 switch=n length=46.7821807812075 units=ft geometry=#4/0-25kv-rn:#4/0-25kv-rn:3 enabled=true phases=3 
new line.angle_fire_ug_4_25_88_2_0002 bus1=node_ug_4_25_88_1_2.1.2.3 bus2=node_ug_4_25_88_2_0002.1.2.3 switch=n length=359.702251893047 units=ft geometry=#1/0-25kv-jac:#1/0-25kv-jac:3 enabled=true phases=3 
new line.angle_fire_ug_4_25_88_2_5 bus1=node_ocd21004777.1 bus2=node_ug_4_25_88_2_5.1 switch=n length=9.61702135456295 units=ft geometry=#1/0-25kv-jac:#1/0-25kv-jac:1 enabled=true phases=1 
new line.angle_fire_ug_4_25_88_2_0001 bus1=node_ocd21004776.1.2.3 bus2=node_ug_4_25_88_2_0001.1.2.3 switch=n length=219.344006334612 units=ft geometry=#1/0-25kv-jac:#1/0-25kv-jac:3 enabled=true phases=3 
new line.angle_fire_ug_4_25_78_3_0004 bus1=node_ocd21004775.1.2.3 bus2=node_ug_4_25_78_3_0004.1.2.3 switch=n length=414.62232685103 units=ft geometry=#1/0-25kv-jac:#1/0-25kv-jac:3 enabled=true phases=3 
new line.angle_fire_ug_4_25_88_2_0003 bus1=node_ocd21004775.3 bus2=node_ug_4_25_88_2_0003.3 switch=n length=267.333577554521 units=ft geometry=#1/0-25kv-jac:#1/0-25kv-jac:1 enabled=true phases=1 
new line.angle_fire_ug_4_25_78_3_0003 bus1=node_ocd21004774.1.2.3 bus2=node_ug_4_25_78_3_0003.1.2.3 switch=n length=411.552365788002 units=ft geometry=#1/0-25kv-jac:#1/0-25kv-jac:3 enabled=true phases=3 
new line.angle_fire_ug_4_25_78_3_0002 bus1=node_ocd21004773.1.2.3 bus2=node_ug_4_25_78_3_0002.1.2.3 switch=n length=414.795377891593 units=ft geometry=#1/0-25kv-jac:#1/0-25kv-jac:3 enabled=true phases=3 
new line.angle_fire_ug_4_25_78_3_0001 bus1=node_ocd21004772.1.2.3 bus2=node_ug_4_25_78_3_0001.1.2.3 switch=n length=352.610625865673 units=ft geometry=#1/0-25kv-jac:#1/0-25kv-jac:3 enabled=true phases=3 
new line.angle_fire_ug_4_25_88_1_0002 bus1=node_ocd21004771.1.2.3 bus2=node_ug_4_25_88_1_0002.1.2.3 switch=n length=293.367010752075 units=ft geometry=#1/0-25kv-jac:#1/0-25kv-jac:3 enabled=true phases=3 
new line.angle_fire_ug_4_25_88_1_0001 bus1=node_ocd21004770.1.2.3 bus2=node_ug_4_25_88_1_0001.1.2.3 switch=n length=371.944486187778 units=ft geometry=#1/0-25kv-jac:#1/0-25kv-jac:3 enabled=true phases=3 
new line.angle_fire_ug_4_25_87_2_0002 bus1=node_ocd21004769.1.2.3 bus2=node_ug_4_25_87_2_0002.1.2.3 switch=n length=464.354339067593 units=ft geometry=#1/0-25kv-jac:#1/0-25kv-jac:3 enabled=true phases=3 
new line.angle_fire_ug_4_25_87_2_0001 bus1=node_ocd21004768.1.2.3 bus2=node_ug_4_25_87_2_0001.1.2.3 switch=n length=309.449347904206 units=ft geometry=#1/0-25kv-jac:#1/0-25kv-jac:3 enabled=true phases=3 
new line.angle_fire_ug_4_25_87_4_0002 bus1=node_ocd21004767.1.2.3 bus2=node_ug_4_25_87_4_0002.1.2.3 switch=n length=500.765783419274 units=ft geometry=#1/0-25kv-jac:#1/0-25kv-jac:3 enabled=true phases=3 
new line.angle_fire_ug_4_25_87_4_0001 bus1=node_ocd21004766.1.2.3 bus2=node_ug_4_25_87_4_0001.1.2.3 switch=n length=519.390262615766 units=ft geometry=#1/0-25kv-jac:#1/0-25kv-jac:3 enabled=true phases=3 
new line.angle_fire_ug_4_25_97_2_0001 bus1=node_ocd21004765.1.2.3 bus2=node_ug_4_25_97_2_0001.1.2.3 switch=n length=390.504573711071 units=ft geometry=#1/0-25kv-jac:#1/0-25kv-jac:3 enabled=true phases=3 
new line.angle_fire_ug_4_25_97_1_0002 bus1=node_ocd21004801.1.2.3 bus2=node_ug_4_25_97_1_0002.1.2.3 switch=n length=281.634756145209 units=ft geometry=#1/0-25kv-jac:#1/0-25kv-jac:3 enabled=true phases=3 
new line.angle_fire_ug_4_25_97_1_0001 bus1=node_ocd21004800.1.2.3 bus2=node_ug_4_25_97_1_0001.1.2.3 switch=n length=315.960330566501 units=ft geometry=#1/0-25kv-jac:#1/0-25kv-jac:3 enabled=true phases=3 
new line.angle_fire_ug_4_25_97_3_0001 bus1=node_ocd21004799.1.2.3 bus2=node_ug_4_25_97_3_0001.1.2.3 switch=n length=340.356248839161 units=ft geometry=#1/0-25kv-jac:#1/0-25kv-jac:3 enabled=true phases=3 
new line.angle_fire_ug_4_25_97_3_0003 bus1=node_ocd21004806.1.2.3 bus2=node_ug_4_25_97_3_0003.1.2.3 switch=n length=299.986981262613 units=ft geometry=#1/0-25kv-jac:#1/0-25kv-jac:3 enabled=true phases=3 
new line.angle_fire_ug_4_25_97_3_0002 bus1=node_ocd21004805.1.2.3 bus2=node_ug_4_25_97_3_0002.1.2.3 switch=n length=329.096036970488 units=ft geometry=#1/0-25kv-jac:#1/0-25kv-jac:3 enabled=true phases=3 
new line.angle_fire_ug_4_25_97_4_0001 bus1=node_ocd21004804.1.2.3 bus2=node_ug_4_25_97_4_0001.1.2.3 switch=n length=210.474147453191 units=ft geometry=#1/0-25kv-jac:#1/0-25kv-jac:3 enabled=true phases=3 
new line.angle_fire_ug_4_35_7_1_0002 bus1=node_ocd21004803.1.2.3 bus2=node_ug_4_35_7_1_0002.1.2.3 switch=n length=240.185756938616 units=ft geometry=#1/0-25kv-jac:#1/0-25kv-jac:3 enabled=true phases=3 
new line.angle_fire_ug_4_35_7_1_0001 bus1=node_fuse_prefix_4_35_7_1_0002.1.2.3 bus2=node_ug_4_35_7_1_0001.1.2.3 switch=n length=420.076103089352 units=ft geometry=#1/0-25kv-jac:#1/0-25kv-jac:3 enabled=true phases=3 
new line.angle_fire_ug_4_35_7_3_0004 bus1=node_fuse_prefix_4_35_7_1_0001.1.2.3 bus2=node_ug_4_35_7_3_0004.1.2.3 switch=n length=347.648418492117 units=ft geometry=#1/0-25kv-jac:#1/0-25kv-jac:3 enabled=true phases=3 
new line.angle_fire_ug_4_35_7_3_0003 bus1=node_fuse_prefix_4_35_7_3_0004.1.2.3 bus2=node_ug_4_35_7_3_0003.1.2.3 switch=n length=466.758133733299 units=ft geometry=#1/0-25kv-jac:#1/0-25kv-jac:3 enabled=true phases=3 
new line.angle_fire_ug_4_35_7_3_0002 bus1=node_fuse_prefix_4_35_7_3_0003.1.2.3 bus2=node_ug_4_35_7_3_0002.1.2.3 switch=n length=401.853661515701 units=ft geometry=#1/0-25kv-jac:#1/0-25kv-jac:3 enabled=true phases=3 
new line.angle_fire_ug_4_35_7_3_0001 bus1=node_fuse_prefix_4_35_7_3_0002.1.2.3 bus2=node_ug_4_35_7_3_0001.1.2.3 switch=n length=286.812602850202 units=ft geometry=#1/0-25kv-jac:#1/0-25kv-jac:3 enabled=true phases=3 
new line.angle_fire_ug_4_35_17_1_0001 bus1=node_fuse_prefix_4_35_7_3_0001.1.2.3 bus2=node_ug_4_35_17_1_0001.1.2.3 switch=n length=608.851000027242 units=ft geometry=#1/0-25kv-jac:#1/0-25kv-jac:3 enabled=true phases=3 
new line.angle_fire_ug4490008 bus1=node_fuse_prefix_4_35_7_3_0001.3 bus2=node_ug4490008.3 switch=n length=360.864944113021 units=ft geometry=#4/0-25kv-jac:#4/0-25kv-jac:1 enabled=true phases=1 
new line.angle_fire_ug_4_25_97_1_0003 bus1=node_ug_4_25_97_2_0001.1.2.3 bus2=node_ug_4_25_97_1_0003.1.2.3 switch=n length=385.416164468636 units=ft geometry=#1/0-25kv-jac:#1/0-25kv-jac:3 enabled=true phases=3 
new line.angle_fire_ug4500005 bus1=node_ocd21004921.1.2.3 bus2=node_ug4500005.1.2.3 switch=n length=1191.68807700834 units=ft geometry=#4/0-25kv-jac:#4/0-25kv-jac:3 enabled=true phases=3 
new line.angle_fire_ug4500006 bus1=node_ocd21004928.1.2.3 bus2=node_ug4500006.1.2.3 switch=n length=893.676124247946 units=ft geometry=#4/0-25kv-jac:#4/0-25kv-jac:3 enabled=true phases=3 
new line.angle_fire_ug4500007 bus1=node_ocd21004929.1.2.3 bus2=node_ug4500007.1.2.3 switch=n length=1082.79302801404 units=ft geometry=#4/0-25kv-jac:#4/0-25kv-jac:3 enabled=true phases=3 
new line.angle_fire_ug_4_36_23_3_0001 bus1=node_ocd21004931.1.2.3 bus2=node_ug_4_36_23_3_0001.1.2.3 switch=n length=1203.53962436565 units=ft geometry=#4/0-25kv-jac:#4/0-25kv-jac:3 enabled=true phases=3 
new line.angle_fire_ug_4_36_23_3_0002 bus1=node_ocd21004933.1.2.3 bus2=node_ug_4_36_23_3_0002.1.2.3 switch=n length=1338.51740637852 units=ft geometry=#4/0-25kv-jac:#4/0-25kv-jac:3 enabled=true phases=3 
new line.angle_fire_ug_4_36_23_3_0003 bus1=node_ocd21004935.1.2.3 bus2=node_ug_4_36_23_3_0003.1.2.3 switch=n length=845.544259153842 units=ft geometry=#4/0-25kv-jac:#4/0-25kv-jac:3 enabled=true phases=3 
new line.angle_fire_ug4600006 bus1=node_ocd21004937.1.2.3 bus2=node_ug4600006.1.2.3 switch=n length=489.75043699264 units=ft geometry=#4/0-25kv-jac:#4/0-25kv-jac:3 enabled=true phases=3 
new line.angle_fire_ug4600005 bus1=node_ocd21004937.3 bus2=node_ug4600005.3 switch=n length=90.7701624804579 units=ft geometry=#1/0-25kv-jac:#1/0-25kv-jac:1 enabled=true phases=1 
new line.angle_fire_ug_4_36_42_2_0006 bus1=node_ocd21004938.1.2.3 bus2=node_ug_4_36_42_2_0006.1.2.3 switch=n length=1328.73329027979 units=ft geometry=#4/0-25kv-jac:#4/0-25kv-jac:3 enabled=true phases=3 
new line.angle_fire_ug_4_36_42_2_0008 bus1=node_ocd21004940.1.2.3 bus2=node_ug_4_36_42_2_0008.1.2.3 switch=n length=608.665424978579 units=ft geometry=#4/0-25kv-jac:#4/0-25kv-jac:3 enabled=true phases=3 
new line.angle_fire_ug4600102 bus1=node_ocd21004986.1.2.3 bus2=node_ug4600102.1.2.3 switch=n length=237.525717414565 units=ft geometry=#4/0-25kv-jac:#4/0-25kv-jac:3 enabled=true phases=3 
new line.angle_fire_ug4600097 bus1=node_ocd21004986.1.2.3 bus2=node_ug4600097.1.2.3 switch=n length=764.373176073464 units=ft geometry=#1/0-25kv-jac:#1/0-25kv-jac:3 enabled=true phases=3 
new line.angle_fire_oh4600089 bus1=node_oh4600008.3 bus2=node_oh4600089.3 switch=n length=121.006714276559 units=ft geometry=none:none:1 enabled=true phases=1 
new line.angle_fire_oh4600009 bus1=node_oh4600008.1.2.3 bus2=node_oh4600009.1.2.3 switch=n length=87.6299748944854 units=ft geometry=#4-acsr-6/1:#4-acsr-6/1:3 enabled=true phases=3 
new line.angle_fire_oh4600010 bus1=node_4600008.1.2.3 bus2=node_oh4600010.1.2.3 switch=n length=823.779918965964 units=ft geometry=#1/0-25kv-jac:#1/0-25kv-jac:3 enabled=true phases=3 
new line.angle_fire_oh4600076 bus1=node_oh4600010.3 bus2=node_oh4600076.3 switch=n length=508.600775162932 units=ft geometry=#4-acsr-6/1:#4-acsr-6/1:1 enabled=true phases=1 
new line.angle_fire_oh4600011 bus1=node_4600010.1.2.3 bus2=node_oh4600011.1.2.3 switch=n length=1215.27489964556 units=ft geometry=#1/0-acsr-6/1:#2-acsr-6/1:3 enabled=true phases=3 
new line.angle_fire_oh4600016 bus1=node_oh4600015.1.2.3 bus2=node_oh4600016.1.2.3 switch=n length=391.807615673988 units=ft geometry=#1/0-acsr-6/1:#2-acsr-6/1:3 enabled=true phases=3 
new line.angle_fire_oh4600078 bus1=node_cp571119942.3 bus2=node_oh4600078.3 switch=n length=317.088017118321 units=ft geometry=#4-acsr-6/1:#4-acsr-6/1:1 enabled=true phases=1 
new line.angle_fire_oh4600082 bus1=node_oh4600081.3 bus2=node_oh4600082.3 switch=n length=382.114059542315 units=ft geometry=#4-acsr-6/1:#4-acsr-6/1:1 enabled=true phases=1 
new line.angle_fire_ug4600163 bus1=node_4600011.3 bus2=node_ug4600163.3 switch=n length=462.556049036116 units=ft geometry=#1/0-25kv-jac:#1/0-25kv-jac:1 enabled=true phases=1 
new line.angle_fire_oh4600018 bus1=node_86749-86747-86750.1.2.3 bus2=node_oh4600018.1.2.3 switch=n length=148.977526781618 units=ft geometry=#1/0-acsr-6/1:#2-acsr-6/1:3 enabled=true phases=3 
new line.angle_fire_oh4600052 bus1=node_oh4600051.3 bus2=node_oh4600052.3 switch=n length=90.215883856621 units=ft geometry=#4-acsr-6/1:#4-acsr-6/1:1 enabled=true phases=1 
new line.angle_fire_ug4600002 bus1=node_4600005.3 bus2=node_ug4600002.3 switch=n length=211.014506610369 units=ft geometry=#1/0-25kv-jac:#1/0-25kv-jac:1 enabled=true phases=1 
new line.angle_fire_ug4600164 bus1=node_4600006.3 bus2=node_ug4600164.3 switch=n length=491.169379033494 units=ft geometry=#1/0-25kv-jac:#1/0-25kv-jac:1 enabled=true phases=1 
new line.angle_fire_oh4600048 bus1=node_oh4600046.3 bus2=node_oh4600048.3 switch=n length=295.336684529431 units=ft geometry=#4-acsr-6/1:#4-acsr-6/1:1 enabled=true phases=1 
new line.angle_fire_oh4600047 bus1=node_oh4600046.3 bus2=node_oh4600047.3 switch=n length=362.876858727543 units=ft geometry=#4-acsr-6/1:#4-acsr-6/1:1 enabled=true phases=1 
new line.angle_fire_ug4600001 bus1=node_4600004.3 bus2=node_ug4600001.3 switch=n length=371.974322769737 units=ft geometry=#1/0-25kv-jac:#1/0-25kv-jac:1 enabled=true phases=1 
new line.angle_fire_oh4600038 bus1=node_oh4600037.3 bus2=node_oh4600038.3 switch=n length=124.524133747583 units=ft geometry=#4-acsr-6/1:#4-acsr-6/1:1 enabled=true phases=1 
new line.angle_fire_oh4700007 bus1=node_oh4700006.1.2.3 bus2=node_oh4700007.1.2.3 switch=n length=355.868846065547 units=ft geometry=#1/0-acsr-6/1:#2-acsr-6/1:3 enabled=true phases=3 
new line.angle_fire_ug4700010 bus1=node_4700003.3 bus2=node_ug4700010.3 switch=n length=175.241736181954 units=ft geometry=#1/0-25kv-jac:#1/0-25kv-jac:1 enabled=true phases=1 
new line.angle_fire_oh4301590 bus1=node_oh4301589.1.2.3 bus2=node_oh4301590.1.2.3 switch=n length=373.633599265497 units=ft geometry=#1/0-acsr-6/1:#2-acsr-6/1:3 enabled=true phases=3 
new line.angle_fire_ug4302831 bus1=node_ocd4302830.3 bus2=node_ug4302831.3 switch=n length=1088.25780847187 units=ft geometry=#1/0-25kv-jac:#1/0-25kv-jac:1 enabled=true phases=1 
new line.angle_fire_oh42861 bus1=node_069860b1-097861-cp5711199.1.2.3 bus2=node_oh42861.1.2.3 switch=n length=218.342218775885 units=ft geometry=#1/0-acsr-6/1:#2-acsr-6/1:3 enabled=true phases=3 
new line.angle_fire_oh42872 bus1=node_oh4302086.1.2.3 bus2=node_oh42872.1.2.3 switch=n length=171.240604121627 units=ft geometry=#1/0-acsr-6/1:#2-acsr-6/1:3 enabled=true phases=3 
new line.angle_fire_oh42873 bus1=node_ocd4302857.3 bus2=node_oh42873.3 switch=n length=385.584152812485 units=ft geometry=#4-acsr-6/1:#4-acsr-6/1:1 enabled=true phases=1 
new line.angle_fire_oh4302275 bus1=node_oh4302103.3 bus2=node_oh4302275.3 switch=n length=359.433385344146 units=ft geometry=#4-acsr-6/1:#4-acsr-6/1:1 enabled=true phases=1 
new line.angle_fire_ug4302104 bus1=node_ocd4302859.3 bus2=node_ug4302104.3 switch=n length=297.899711480065 units=ft geometry=500-mcm-25kv-jacc:500-mcm-25kv-jacc:1 enabled=true phases=1 
new line.angle_fire_oh4302305 bus1=node_oh4302301.3 bus2=node_oh4302305.3 switch=n length=11.7947657881588 units=ft geometry=trip-#1/0:trip-#1/0:1 enabled=true phases=1 
new line.angle_fire_oh4302302 bus1=node_oh4302301.3 bus2=node_oh4302302.3 switch=n length=309.480311005349 units=ft geometry=#4-acsr-6/1:#4-acsr-6/1:1 enabled=true phases=1 
new line.angle_fire_ug4302308 bus1=node_ocd4302555.3 bus2=node_ug4302308.3 switch=n length=339.038662102125 units=ft geometry=#1/0-25kv-jac:#1/0-25kv-jac:1 enabled=true phases=1 
new line.angle_fire_oh4302322 bus1=node_oh4302317.3 bus2=node_oh4302322.3 switch=n length=253.471222824046 units=ft geometry=#4-acsr-6/1:#4-acsr-6/1:1 enabled=true phases=1 
new line.angle_fire_ug4302318 bus1=node_ocd4302556.3 bus2=node_ug4302318.3 switch=n length=160.223773828987 units=ft geometry=#1/0-25kv-jac:#1/0-25kv-jac:1 enabled=true phases=1 
new line.angle_fire_ug4302326 bus1=node_ocd4302557.3 bus2=node_ug4302326.3 switch=n length=74.0820086120532 units=ft geometry=#1/0-25kv-jac:#1/0-25kv-jac:1 enabled=true phases=1 
new line.angle_fire_oh4302214 bus1=node_oh4302087.1.2.3 bus2=node_oh4302214.1.2.3 switch=n length=505.101621854315 units=ft geometry=#1/0-acsr-6/1:#2-acsr-6/1:3 enabled=true phases=3 
new line.angle_fire_oh43316 bus1=node_ocd4302874.3 bus2=node_oh43316.3 switch=n length=373.602645868606 units=ft geometry=#4-acsr-6/1:#4-acsr-6/1:1 enabled=true phases=1 
new line.angle_fire_oh4302485 bus1=node_oh4302475.1.2.3 bus2=node_oh4302485.1.2.3 switch=n length=386.452131058875 units=ft geometry=#1/0-acsr-6/1:#2-acsr-6/1:3 enabled=true phases=3 
new line.angle_fire_oh4302483 bus1=node_ocd4302879.3 bus2=node_oh4302483.3 switch=n length=224.551204183099 units=ft geometry=#1/0-25kv-jac:#1/0-25kv-jac:1 enabled=true phases=1 
new line.angle_fire_oh4302489 bus1=node_oh4302485.1.2.3 bus2=node_oh4302489.1.2.3 switch=n length=156.870892137674 units=ft geometry=#1/0-acsr-6/1:#2-acsr-6/1:3 enabled=true phases=3 
new line.angle_fire_ug4302486 bus1=node_ocd4302881.3 bus2=node_ug4302486.3 switch=n length=245.694349344778 units=ft geometry=#1/0-25kv-jac:#1/0-25kv-jac:1 enabled=true phases=1 
new line.angle_fire_oh4302548 bus1=node_oh4302547.3 bus2=node_oh4302548.3 switch=n length=505.681179598359 units=ft geometry=#4-acsr-6/1:#4-acsr-6/1:1 enabled=true phases=1 
new line.angle_fire_ug4302549 bus1=node_ocd4302887.3 bus2=node_ug4302549.3 switch=n length=577.544735063799 units=ft geometry=#1/0-25kv-jac:#1/0-25kv-jac:1 enabled=true phases=1 
new line.angle_fire_oh4302556 bus1=node_oh4302552.3 bus2=node_oh4302556.3 switch=n length=166.514308093908 units=ft geometry=#4-acsr-6/1:#4-acsr-6/1:1 enabled=true phases=1 
new line.angle_fire_ug4302553 bus1=node_ocd4302893.3 bus2=node_ug4302553.3 switch=n length=202.572179975339 units=ft geometry=#1/0-25kv-jac:#1/0-25kv-jac:1 enabled=true phases=1 
new line.angle_fire_ug4302566 bus1=node_ocd4302898.3 bus2=node_ug4302566.3 switch=n length=374.241659893727 units=ft geometry=#1/0-25kv-jac:#1/0-25kv-jac:1 enabled=true phases=1 
new line.angle_fire_oh4302668 bus1=node_oh42978.3 bus2=node_oh4302668.3 switch=n length=436.425290971904 units=ft geometry=#4-acsr-6/1:#4-acsr-6/1:1 enabled=true phases=1 
new line.angle_fire_oh42977 bus1=node_oh42978.3 bus2=node_oh42977.3 switch=n length=154.769478257175 units=ft geometry=#4-acsr-6/1:#4-acsr-6/1:1 enabled=true phases=1 
new line.angle_fire_ug4302673 bus1=node_ocd4304069.3 bus2=node_ug4302673.3 switch=n length=988.01954322755 units=ft geometry=#1/0-25kv-jac:#1/0-25kv-jac:1 enabled=true phases=1 
new line.angle_fire_oh42971 bus1=node_oh42973.3 bus2=node_oh42971.3 switch=n length=212.742808338958 units=ft geometry=#4-acsr-6/1:#4-acsr-6/1:1 enabled=true phases=1 
new line.angle_fire_ug4300066 bus1=node_ocd4307564.3 bus2=node_ug4300066.3 switch=n length=510.889079546674 units=ft geometry=#1/0-25kv-jac:#1/0-25kv-jac:1 enabled=true phases=1 
new line.angle_fire_ug4302674 bus1=node_ocd4304070.3 bus2=node_ug4302674.3 switch=n length=806.179135738361 units=ft geometry=#4/0-trip-600a:#4/0-trip-600a:1 enabled=true phases=1 
new line.angle_fire_oh4302271 bus1=node_oh42989.1.2.3 bus2=node_oh4302271.1.2.3 switch=n length=356.643286022927 units=ft geometry=#1/0-acsr-6/1:#2-acsr-6/1:3 enabled=true phases=3 
new line.angle_fire_ug4306734 bus1=node_ocd4302558.3 bus2=node_ug4306734.3 switch=n length=463.57819692721 units=ft geometry=#1/0-25kv-jaccic:#1/0-25kv-jaccic:1 enabled=true phases=1 
new line.angle_fire_ug4300047 bus1=node_ocd4302560.3 bus2=node_ug4300047.3 switch=n length=626.551391188374 units=ft geometry=#1/0-25kv-jac:#1/0-25kv-jac:1 enabled=true phases=1 
new line.angle_fire_ug4307530 bus1=node_ug4307527.3 bus2=node_ug4307530.3 switch=n length=347.996072459578 units=ft geometry=#1/0-25kv-jac:#1/0-25kv-jac:1 enabled=true phases=1 
new line.angle_fire_ug_4_57_18_4_0001 bus1=node_fuse_prefix_4_57_18_4_000.3 bus2=node_ug_4_57_18_4_0001.3 switch=n length=220.102879772437 units=ft geometry=#1/0-25kv-jac:#1/0-25kv-jac:1 enabled=true phases=1 
new line.angle_fire_ug4300145 bus1=node_ocd4302559.3 bus2=node_ug4300145.3 switch=n length=393.191529537533 units=ft geometry=#1/0-25kv-jac:#1/0-25kv-jac:1 enabled=true phases=1 
new line.angle_fire_oh4302496 bus1=node_oh4302492.3 bus2=node_oh4302496.3 switch=n length=433.621988487586 units=ft geometry=#4-acsr-6/1:#4-acsr-6/1:1 enabled=true phases=1 
new line.angle_fire_ug4302497 bus1=node_ocd4302883.3 bus2=node_ug4302497.3 switch=n length=1432.68930438529 units=ft geometry=#1/0-25kv-jac:#1/0-25kv-jac:1 enabled=true phases=1 
new line.angle_fire_oh43238 bus1=node_44064.3 bus2=node_oh43238.3 switch=n length=624.008375985408 units=ft geometry=#4-acsr-6/1:#4-acsr-6/1:1 enabled=true phases=1 
new line.angle_fire_oh43241 bus1=node_oh43238.3 bus2=node_oh43241.3 switch=n length=502.922717323411 units=ft geometry=#4-acsr-6/1:#4-acsr-6/1:1 enabled=true phases=1 
new line.angle_fire_oh43239 bus1=node_ocd4302553.3 bus2=node_oh43239.3 switch=n length=203.940525153812 units=ft geometry=#4-acsr-6/1:#4-acsr-6/1:1 enabled=true phases=1 
new line.angle_fire_oh43242 bus1=node_oh43241.3 bus2=node_oh43242.3 switch=n length=449.618287550605 units=ft geometry=#4-acsr-6/1:#4-acsr-6/1:1 enabled=true phases=1 
new line.angle_fire_ug4303233 bus1=node_ocd4303232.3 bus2=node_ug4303233.3 switch=n length=134.470576707339 units=ft geometry=none:none:1 enabled=true phases=1 
new line.angle_fire_oh4303234 bus1=node_ug4303233.3 bus2=node_oh4303234.3 switch=n length=715.527234422282 units=ft geometry=#4-acsr-6/1:#4-acsr-6/1:1 enabled=true phases=1 
new line.angle_fire_ug4303237 bus1=node_ocd4308071.3 bus2=node_ug4303237.3 switch=n length=641.537882357837 units=ft geometry=#1/0-25kv-jac:#1/0-25kv-jac:1 enabled=true phases=1 
new line.angle_fire_ug_4_56_39_3_0001 bus1=node_ug4303237.3 bus2=node_ug_4_56_39_3_0001.3 switch=n length=2.55050259164293 units=ft geometry=#1/0-25kv-jac:#1/0-25kv-jac:1 enabled=true phases=1 
new line.angle_fire_ug4303239 bus1=node_ug4303237.3 bus2=node_ug4303239.3 switch=n length=232.400095739962 units=ft geometry=#1/0-25kv-jac:#1/0-25kv-jac:1 enabled=true phases=1 
new line.angle_fire_ug4303242 bus1=node_ug4303237.3 bus2=node_ug4303242.3 switch=n length=1138.20447886121 units=ft geometry=#1/0-25kv-jac:#1/0-25kv-jac:1 enabled=true phases=1 
new line.angle_fire_ug4303238 bus1=node_ug4303237.3 bus2=node_ug4303238.3 switch=n length=214.678109270591 units=ft geometry=#1/0-25kv-jac:#1/0-25kv-jac:1 enabled=true phases=1 
new line.angle_fire_ug4303248 bus1=node_ug4303247.3 bus2=node_ug4303248.3 switch=n length=1024.93627972264 units=ft geometry=#1/0-25kv-jac:#1/0-25kv-jac:1 enabled=true phases=1 
new line.angle_fire_ug_4_56_38_3_0001 bus1=node_fuse_prefix_4_56_38_3_000.3 bus2=node_ug_4_56_38_3_0001.3 switch=n length=310.525915504376 units=ft geometry=#1/0-25kv-jac:#1/0-25kv-jac:1 enabled=true phases=1 
new line.angle_fire_oh4301506 bus1=node_ocd4302328.3 bus2=node_oh4301506.3 switch=n length=543.655661701381 units=ft geometry=#4-acsr-6/1:#4-acsr-6/1:1 enabled=true phases=1 
new line.angle_fire_oh4700148 bus1=node_oh4700147.3 bus2=node_oh4700148.3 switch=n length=364.808985772007 units=ft geometry=#4-acsr-6/1:#4-acsr-6/1:1 enabled=true phases=1 
new line.angle_fire_oh4700149 bus1=node_oh4700147.3 bus2=node_oh4700149.3 switch=n length=514.996841932026 units=ft geometry=#4-acsr-6/1:#4-acsr-6/1:1 enabled=true phases=1 
new line.angle_fire_ug4700039 bus1=node_4700016.3 bus2=node_ug4700039.3 switch=n length=365.701624005197 units=ft geometry=#1/0-25kv-jac:#1/0-25kv-jac:1 enabled=true phases=1 
new line.angle_fire_ug4700036 bus1=node_4700015.3 bus2=node_ug4700036.3 switch=n length=128.634151763966 units=ft geometry=#1/0-25kv-jac:#1/0-25kv-jac:1 enabled=true phases=1 
new line.angle_fire_oh4700150 bus1=node_oh4700149.3 bus2=node_oh4700150.3 switch=n length=155.071404520692 units=ft geometry=#4-acsr-6/1:#4-acsr-6/1:1 enabled=true phases=1 
new line.angle_fire_ug4700031 bus1=node_4700017.3 bus2=node_ug4700031.3 switch=n length=18.3695714349805 units=ft geometry=#1/0-25kv-jac:#1/0-25kv-jac:1 enabled=true phases=1 
new line.angle_fire_ug4700033 bus1=node_4700018.3 bus2=node_ug4700033.3 switch=n length=305.726091951575 units=ft geometry=500-mcm-25kv-jacc:500-mcm-25kv-jacc:1 enabled=true phases=1 
new line.angle_fire_ug4600165 bus1=node_4600012.3 bus2=node_ug4600165.3 switch=n length=459.536319565786 units=ft geometry=#1/0-25kv-jac:#1/0-25kv-jac:1 enabled=true phases=1 
new line.angle_fire_oh4700057 bus1=node_oh4700056.3 bus2=node_oh4700057.3 switch=n length=542.968793394386 units=ft geometry=#4-acsr-6/1:#4-acsr-6/1:1 enabled=true phases=1 
new line.angle_fire_ug4700011 bus1=node_4700006.3 bus2=node_ug4700011.3 switch=n length=536.945718858001 units=ft geometry=#1/0-25kv-jac:#1/0-25kv-jac:1 enabled=true phases=1 