new line.reg42843 bus1=node_oh42842.1.2.3 bus2=node_reg42843.1.2.3 switch=y length=0.001 units=ft enabled=true phases=3 
