new transformer.t4700002 buses=[node_oh4700006.3 node_t4700002.3] xfmrcode=0-kva-1ph-ug 
new transformer.xfmr4302303 buses=[node_oh4302301.3 node_xfmr4302303.3] xfmrcode=0-kva-1ph-ug 
new transformer.xfmr4302888 buses=[node_oh4302547.3 node_xfmr4302888.3] xfmrcode=0-kva-1ph-ug 
new transformer.xfmr4302899 buses=[node_oh4302565.3 node_xfmr4302899.3] xfmrcode=10-kva-1ph 
new transformer.xfmr4302269 buses=[node_oh4302267.3 node_xfmr4302269.3] xfmrcode=10-kva-1ph 
new transformer.xfmr4302273 buses=[node_oh42981.3 node_xfmr4302273.3] xfmrcode=0-kva-1ph-ug 
new transformer.xfmr4302884 buses=[node_oh4302492.3 node_xfmr4302884.3] xfmrcode=0-kva-1ph-ug 
new transformer.xfmr4302232 buses=[node_oh43238.3 node_xfmr4302232.3] xfmrcode=0-kva-1ph-ug 
new transformer.xfmr4304056 buses=[node_oh43241.3 node_xfmr4304056.3] xfmrcode=0-kva-1ph-ug 
new transformer.xfmr4303231 buses=[node_oh4303230.3 node_xfmr4303231.3] xfmrcode=0-kva-1ph-ug 
new transformer.xfmr4308070 buses=[node_oh4303234.3 node_xfmr4308070.3] xfmrcode=15-kva-1ph 
new transformer.t4600133 buses=[node_oh4600029.3 node_t4600133.3] xfmrcode=0-kva-1ph-ug 
new transformer.xfmr4302342 buses=[node_oh43133.3 node_xfmr4302342.3] xfmrcode=0-kva-1ph-ug 
new transformer.t4700014 buses=[node_oh4700034.3 node_t4700014.3] xfmrcode=0-kva-1ph-ug 
new transformer.t4700041 buses=[node_oh4700095.3 node_t4700041.3] xfmrcode=10-kva-1ph 
new transformer.t4700044 buses=[node_oh4700098.3 node_t4700044.3] xfmrcode=0-kva-1ph-ug 
new transformer.t4700027 buses=[node_oh4700115.3 node_t4700027.3] xfmrcode=10-kva-1ph 
new transformer.t4700032 buses=[node_oh4700135.3 node_t4700032.3] xfmrcode=0-kva-1ph-ug 
new transformer.t4500303 buses=[node_ug4500319.3 node_t4500303.3] xfmrcode=0-kva-1ph-ug 
new transformer.t4500257 buses=[node_oh4500026.2 node_t4500257.2] xfmrcode=37-5-kva-1ph 
new transformer.xfmr4306760 buses=[node_oh4306759.3 node_xfmr4306760.3] xfmrcode=0-kva-1ph-ug 
new transformer.xfmr4306788 buses=[node_oh4306787.3 node_xfmr4306788.3] xfmrcode=0-kva-1ph-ug 
new transformer.t4500288 buses=[node_oh4500014.3 node_t4500288.3] xfmrcode=0-kva-1ph-ug 
new transformer.t4500248 buses=[node_oh_4_26_62_1_0001.1 node_t4500248.1] xfmrcode=0-kva-1ph 
new transformer.t4500254 buses=[node_oh4500019.3 node_t4500254.3] xfmrcode=10-kva-1ph 
new transformer.t4500264 buses=[node_oh4500049.3 node_t4500264.3] xfmrcode=0-kva-1ph-ug 
new transformer.t4400103 buses=[node_oh4400213.2 node_t4400103.2] xfmrcode=0-kva-1ph-ug 
new transformer.t4400107 buses=[node_oh4400222.2 node_t4400107.2] xfmrcode=0-kva-1ph-ug 
new transformer.t4400007 buses=[node_oh4400022.3 node_t4400007.3] xfmrcode=15-kva-1ph 
new transformer.t4400117 buses=[node_oh4400241.2 node_t4400117.2] xfmrcode=0-kva-1ph-ug 
new transformer.t4400016 buses=[node_oh4400052.1 node_t4400016.1] xfmrcode=0-kva-1ph 
new transformer.t4400036 buses=[node_oh4400085.1 node_t4400036.1] xfmrcode=0-kva-1ph 
new transformer.t4400043 buses=[node_ug4400007.1 node_t4400043.1] xfmrcode=10-kva-1ph 
new transformer.t4400076 buses=[node_oh4400171.1 node_t4400076.1] xfmrcode=10-kva-1ph 
new transformer.t4400055 buses=[node_oh4400142.1 node_t4400055.1] xfmrcode=10-kva-1ph 
new transformer.t4300003 buses=[node_ug4300004.1 node_t4300003.1] xfmrcode=0-kva-1ph 
new transformer.t4400056 buses=[node_oh4400143.1 node_t4400056.1] xfmrcode=10-kva-1ph 
new transformer.t4400020 buses=[node_oh4400069.3 node_t4400020.3] xfmrcode=0-kva-1ph-ug 
new transformer.t4400021 buses=[node_oh4400071.3 node_t4400021.3] xfmrcode=10-kva-1ph 
new transformer.t4400018 buses=[node_oh4400059.3 node_t4400018.3] xfmrcode=0-kva-1ph-ug 
new transformer.t4390018 buses=[node_oh4390003.1 node_t4390018.1] xfmrcode=0-kva-1ph 
new transformer.t4400124 buses=[node_oh4400259.3 node_t4400124.3] xfmrcode=0-kva-1ph-ug 
new transformer.t4400003 buses=[node_oh4400008.1 node_t4400003.1] xfmrcode=15-kva-1ph 
new transformer.t4400001 buses=[node_oh4400003.3 node_t4400001.3] xfmrcode=0-kva-1ph-ug 
new transformer.t4500252 buses=[node_oh4500015.3 node_t4500252.3] xfmrcode=37-5-kva-1ph 
new transformer.xfmr4302979 buses=[node_oh4302762.1 node_xfmr4302979.1] xfmrcode=0-kva-1ph 
new transformer.xfmr4302936 buses=[node_oh4307179.1.2.3 node_xfmr4302936.1.2.3] xfmrcode=45-kva-3ph-ug 
new transformer.xfmr4302937 buses=[node_oh4307201.1.2.3 node_xfmr4302937.1.2.3] xfmrcode=45-kva-3ph-ug 
new transformer.xfmr4302939 buses=[node_oh4307204.1.2.3 node_xfmr4302939.1.2.3] xfmrcode=45-kva-3ph-ug 
new transformer.xfmr4302941 buses=[node_oh4307205.1.2.3 node_xfmr4302941.1.2.3] xfmrcode=45-kva-3ph-ug 
new transformer.t4600011 buses=[node_ug4600017.3 node_t4600011.3] xfmrcode=0-kva-1ph-ug 
new transformer.t4600136 buses=[node_oh4600089.3 node_t4600136.3] xfmrcode=15-kva-1ph 
new transformer.t4600130 buses=[node_oh4600082.3 node_t4600130.3] xfmrcode=0-kva-1ph-ug 
new transformer.t4600137 buses=[node_oh4600069.3 node_t4600137.3] xfmrcode=0-kva-1ph-ug 
new transformer.t4600001 buses=[node_oh4600034.3 node_t4600001.3] xfmrcode=10-kva-1ph 
new transformer.t4600004 buses=[node_oh4600056.3 node_t4600004.3] xfmrcode=0-kva-1ph-ug 
new transformer.t4600005 buses=[node_oh4600058.3 node_t4600005.3] xfmrcode=0-kva-1ph-ug 
new transformer.t4600128 buses=[node_oh4600060.3 node_t4600128.3] xfmrcode=0-kva-1ph-ug 
new transformer.t4600006 buses=[node_oh4600063.3 node_t4600006.3] xfmrcode=0-kva-1ph-ug 
new transformer.t4600002 buses=[node_oh4600038.3 node_t4600002.3] xfmrcode=10-kva-1ph 
new transformer.t4600003 buses=[node_oh4600048.3 node_t4600003.3] xfmrcode=10-kva-1ph 
new transformer.t4700057 buses=[node_oh4700054.3 node_t4700057.3] xfmrcode=0-kva-1ph-ug 
new transformer.t4700058 buses=[node_oh4700151.3 node_t4700058.3] xfmrcode=0-kva-1ph-ug 
new transformer.t4600134 buses=[node_oh4600030.3 node_t4600134.3] xfmrcode=10-kva-1ph 
new transformer.t4600135 buses=[node_oh4600084.3 node_t4600135.3] xfmrcode=0-kva-1ph-ug 
new transformer.t4700001 buses=[node_oh4700005.3 node_t4700001.3] xfmrcode=0-kva-1ph-ug 
new transformer.t4600140 buses=[node_oh4600086.3 node_t4600140.3] xfmrcode=0-kva-1ph-ug 
new transformer.t4600141 buses=[node_oh4600087.3 node_t4600141.3] xfmrcode=0-kva-1ph-ug 
new transformer.t4600142 buses=[node_oh4600088.3 node_t4600142.3] xfmrcode=0-kva-1ph-ug 
new transformer.t4700003 buses=[node_oh4700007.3 node_t4700003.3] xfmrcode=0-kva-1ph-ug 
new transformer.xfmr4302234 buses=[node_oh42302.3 node_xfmr4302234.3] xfmrcode=0-kva-1ph-ug 
new transformer.xfmr4302235 buses=[node_oh42540.3 node_xfmr4302235.3] xfmrcode=0-kva-1ph-ug 
new transformer.xfmr4304054 buses=[node_oh42666.3 node_xfmr4304054.3] xfmrcode=10-kva-1ph 
new transformer.xfmr4302834 buses=[node_oh4301590.3 node_xfmr4302834.3] xfmrcode=10-kva-1ph 
new transformer.xfmr4302854 buses=[node_oh4301711.3 node_xfmr4302854.3] xfmrcode=0-kva-1ph-ug 
new transformer.xfmr4302238 buses=[node_oh42852.3 node_xfmr4302238.3] xfmrcode=0-kva-1ph-ug 
new transformer.xfmr4302237 buses=[node_oh42853.3 node_xfmr4302237.3] xfmrcode=0-kva-1ph-ug 
new transformer.xfmr4302239 buses=[node_oh42854.3 node_xfmr4302239.3] xfmrcode=0-kva-1ph-ug 
new transformer.xfmr4302229 buses=[node_oh4302228.3 node_xfmr4302229.3] xfmrcode=5-kva-1-ph 
new transformer.xfmr4302856 buses=[node_oh4302046.3 node_xfmr4302856.3] xfmrcode=0-kva-1ph-ug 
new transformer.xfmr4302858 buses=[node_oh4302091.3 node_xfmr4302858.3] xfmrcode=10-kva-1ph 
new transformer.xfmr4302861 buses=[node_oh4302109.3 node_xfmr4302861.3] xfmrcode=0-kva-1ph-ug 
new transformer.xfmr4302863 buses=[node_oh4302125.3 node_xfmr4302863.3] xfmrcode=0-kva-1ph-ug 
new transformer.xfmr4302864 buses=[node_oh4302126.3 node_xfmr4302864.3] xfmrcode=10-kva-1ph 
new transformer.xfmr4302277 buses=[node_oh4302276.3 node_xfmr4302277.3] xfmrcode=10-kva-1ph 
new transformer.xfmr4302279 buses=[node_oh4302278.3 node_xfmr4302279.3] xfmrcode=10-kva-1ph 
new transformer.xfmr4302282 buses=[node_oh4302281.3 node_xfmr4302282.3] xfmrcode=10-kva-1ph 
new transformer.xfmr4302287 buses=[node_oh4302284.3 node_xfmr4302287.3] xfmrcode=10-kva-1ph 
new transformer.xfmr4302288 buses=[node_oh4302285.3 node_xfmr4302288.3] xfmrcode=10-kva-1ph 
new transformer.xfmr4302291 buses=[node_oh4302289.3 node_xfmr4302291.3] xfmrcode=15-kva-1ph 
new transformer.xfmr4302865 buses=[node_oh4302148.3 node_xfmr4302865.3] xfmrcode=0-kva-1ph-ug 
new transformer.xfmr4302295 buses=[node_oh4302294.3 node_xfmr4302295.3] xfmrcode=10-kva-1ph 
new transformer.xfmr4302298 buses=[node_oh4302297.3 node_xfmr4302298.3] xfmrcode=10-kva-1ph 
new transformer.xfmr4308072 buses=[node_oh4302322.3 node_xfmr4308072.3] xfmrcode=0-kva-1ph-ug 
new transformer.xfmr4302315 buses=[node_oh4302314.3 node_xfmr4302315.3] xfmrcode=0-kva-1ph-ug 
new transformer.xfmr4304067 buses=[node_oh43317.3 node_xfmr4304067.3] xfmrcode=0-kva-1ph-ug 
new transformer.xfmr4302873 buses=[node_oh42872.3 node_xfmr4302873.3] xfmrcode=0-kva-1ph-ug 
new transformer.xfmr4302247 buses=[node_oh43316.3 node_xfmr4302247.3] xfmrcode=10-kva-1ph 
new transformer.xfmr4302248 buses=[node_oh43312.3 node_xfmr4302248.3] xfmrcode=10-kva-1ph 
new transformer.xfmr4302250 buses=[node_oh43311.3 node_xfmr4302250.3] xfmrcode=15-kva-1ph 
new transformer.xfmr4302251 buses=[node_oh43310.3 node_xfmr4302251.3] xfmrcode=0-kva-1ph-ug 
new transformer.xfmr4302870 buses=[node_oh4302174.3 node_xfmr4302870.3] xfmrcode=0-kva-1ph-ug 
new transformer.xfmr4302253 buses=[node_oh4300085.3 node_xfmr4302253.3] xfmrcode=10-kva-1ph 
new transformer.xfmr4302254 buses=[node_oh4300139.3 node_xfmr4302254.3] xfmrcode=0-kva-1ph-ug 
new transformer.xfmr4302871 buses=[node_oh4302252.3 node_xfmr4302871.3] xfmrcode=10-kva-1ph 
new transformer.xfmr4302866 buses=[node_oh4302156.3 node_xfmr4302866.3] xfmrcode=5-kva-1-ph 
new transformer.xfmr4302867 buses=[node_oh4302157.3 node_xfmr4302867.3] xfmrcode=0-kva-1ph-ug 
new transformer.xfmr4302878 buses=[node_oh4302369.3 node_xfmr4302878.3] xfmrcode=0-kva-1ph-ug 
new transformer.xfmr4302876 buses=[node_oh4302366.3 node_xfmr4302876.3] xfmrcode=10-kva-1ph 
new transformer.xfmr4302892 buses=[node_oh4302548.3 node_xfmr4302892.3] xfmrcode=0-kva-1ph-ug 
new transformer.xfmr4302895 buses=[node_oh4302557.3 node_xfmr4302895.3] xfmrcode=0-kva-1ph-ug 
new transformer.xfmr4302897 buses=[node_oh4302558.3 node_xfmr4302897.3] xfmrcode=0-kva-1ph-ug 
new transformer.xfmr4302901 buses=[node_oh4302603.3 node_xfmr4302901.3] xfmrcode=10-kva-1ph 
new transformer.xfmr4304068 buses=[node_oh42883.3 node_xfmr4304068.3] xfmrcode=0-kva-1ph-ug 
new transformer.xfmr4302924 buses=[node_oh4302660.3 node_xfmr4302924.3] xfmrcode=0-kva-1ph-ug 
new transformer.xfmr4302925 buses=[node_oh4302665.3 node_xfmr4302925.3] xfmrcode=10-kva-1ph 
new transformer.xfmr4302255 buses=[node_oh42980.3 node_xfmr4302255.3] xfmrcode=0-kva-1ph-ug 
new transformer.xfmr4302258 buses=[node_oh42971.3 node_xfmr4302258.3] xfmrcode=25-kva-1ph 
new transformer.xfmr4302265 buses=[node_oh42959.3 node_xfmr4302265.3] xfmrcode=10-kva-1ph 
new transformer.xfmr4302927 buses=[node_oh4302263.3 node_xfmr4302927.3] xfmrcode=10-kva-1ph 
new transformer.xfmr4302264 buses=[node_oh4302263.3 node_xfmr4302264.3] xfmrcode=10-kva-1ph 
new transformer.xfmr4302257 buses=[node_oh42975.3 node_xfmr4302257.3] xfmrcode=25-kva-1ph 
new transformer.xfmr4302256 buses=[node_oh42977.3 node_xfmr4302256.3] xfmrcode=0-kva-1ph-ug 
new transformer.xfmr4302931 buses=[node_oh4302272.3 node_xfmr4302931.3] xfmrcode=10-kva-1ph 
new transformer.xfmr4302920 buses=[node_oh4302919.3 node_xfmr4302920.3] xfmrcode=10-kva-1ph 
new transformer.xfmr4302885 buses=[node_oh4302496.3 node_xfmr4302885.3] xfmrcode=0-kva-1ph-ug 
new transformer.xfmr4304055 buses=[node_oh43240.3 node_xfmr4304055.3] xfmrcode=0-kva-1ph-ug 
new transformer.xfmr4302240 buses=[node_oh43250.3 node_xfmr4302240.3] xfmrcode=5-kva-1-ph 
new transformer.xfmr4302242 buses=[node_oh43252.3 node_xfmr4302242.3] xfmrcode=0-kva-1ph-ug 
new transformer.xfmr4302243 buses=[node_oh43253.3 node_xfmr4302243.3] xfmrcode=10-kva-1ph 
new transformer.xfmr4302244 buses=[node_oh43254.3 node_xfmr4302244.3] xfmrcode=10-kva-1ph 
new transformer.xfmr4302245 buses=[node_oh43255.3 node_xfmr4302245.3] xfmrcode=10-kva-1ph 
new transformer.xfmr4304059 buses=[node_oh43256.3 node_xfmr4304059.3] xfmrcode=10-kva-1ph 
new transformer.xfmr4304057 buses=[node_oh43267.3 node_xfmr4304057.3] xfmrcode=10-kva-1ph 
new transformer.xfmr4304058 buses=[node_oh43270.3 node_xfmr4304058.3] xfmrcode=10-kva-1ph 
new transformer.xfmr4304060 buses=[node_oh43271.3 node_xfmr4304060.3] xfmrcode=0-kva-1ph-ug 
new transformer.xfmr4304062 buses=[node_oh43273.3 node_xfmr4304062.3] xfmrcode=0-kva-1ph-ug 
new transformer.xfmr4304063 buses=[node_oh43274.3 node_xfmr4304063.3] xfmrcode=0-kva-1ph-ug 
new transformer.xfmr4304066 buses=[node_oh4304065.3 node_xfmr4304066.3] xfmrcode=10-kva-1ph 
new transformer.xfmr4303202 buses=[node_oh4302241.3 node_xfmr4303202.3] xfmrcode=0-kva-1ph-ug 
new transformer.xfmr4303206 buses=[node_oh4303205.3 node_xfmr4303206.3] xfmrcode=0-kva-1ph-ug 
new transformer.xfmr4303213 buses=[node_oh4303211.3 node_xfmr4303213.3] xfmrcode=0-kva-1ph-ug 
new transformer.xfmr4303216 buses=[node_oh4303215.3 node_xfmr4303216.3] xfmrcode=0-kva-1ph-ug 
new transformer.xfmr4303220 buses=[node_oh4303219.3 node_xfmr4303220.3] xfmrcode=0-kva-1ph-ug 
new transformer.xfmr4303223 buses=[node_oh4303222.3 node_xfmr4303223.3] xfmrcode=0-kva-1ph-ug 
new transformer.xfmr4303225 buses=[node_oh4303224.3 node_xfmr4303225.3] xfmrcode=10-kva-1ph 
new transformer.xfmr4303227 buses=[node_oh4303226.3 node_xfmr4303227.3] xfmrcode=5-kva-1-ph 
new transformer.t4700061 buses=[node_oh4700140.3 node_t4700061.3] xfmrcode=0-kva-1ph-ug 
new transformer.t4700005 buses=[node_oh4700143.3 node_t4700005.3] xfmrcode=10-kva-1ph 
new transformer.xfmr4302329 buses=[node_oh43224.3 node_xfmr4302329.3] xfmrcode=5-kva-1-ph 
new transformer.t4700004 buses=[node_oh4700041.3 node_t4700004.3] xfmrcode=15-kva-1ph 
new transformer.t4700068 buses=[node_oh4700061.3 node_t4700068.3] xfmrcode=0-kva-1ph-ug 
new transformer.t4700006 buses=[node_oh4700048.3 node_t4700006.3] xfmrcode=0-kva-1ph-ug 
new transformer.t4700009 buses=[node_oh4700052.3 node_t4700009.3] xfmrcode=15-kva-1ph 
new transformer.t4700010 buses=[node_oh4700016.3 node_t4700010.3] xfmrcode=10-kva-1ph 
new transformer.xfmr4304053 buses=[node_oh4304050.3 node_xfmr4304053.3] xfmrcode=0-kva-1ph-ug 
new transformer.xfmr4302343 buses=[node_oh43194.3 node_xfmr4302343.3] xfmrcode=10-kva-1ph 
new transformer.t4700011 buses=[node_oh4700023.3 node_t4700011.3] xfmrcode=0-kva-1ph-ug 
new transformer.t4700012 buses=[node_oh4700025.3 node_t4700012.3] xfmrcode=15-kva-1ph 
new transformer.t4700013 buses=[node_oh4700030.3 node_t4700013.3] xfmrcode=10-kva-1ph 
new transformer.t4700017 buses=[node_oh4700036.3 node_t4700017.3] xfmrcode=10-kva-1ph 
new transformer.t4700018 buses=[node_oh4700038.3 node_t4700018.3] xfmrcode=15-kva-1ph 
new transformer.t4700019 buses=[node_oh4700039.3 node_t4700019.3] xfmrcode=10-kva-1ph 
new transformer.t4700020 buses=[node_oh4700022.3 node_t4700020.3] xfmrcode=0-kva-1ph-ug 
new transformer.xfmr4302353 buses=[node_oh43206.3 node_xfmr4302353.3] xfmrcode=0-kva-1ph-ug 
new transformer.t4700007 buses=[node_oh4700010.3 node_t4700007.3] xfmrcode=0-kva-1ph-ug 
new transformer.xfmr4302339 buses=[node_oh43021.3 node_xfmr4302339.3] xfmrcode=0-kva-1ph-ug 
new transformer.xfmr4302338 buses=[node_oh43018.3 node_xfmr4302338.3] xfmrcode=0-kva-1ph-ug 
new transformer.t4700008 buses=[node_oh4700014.3 node_t4700008.3] xfmrcode=0-kva-1ph-ug 
new transformer.t4600007 buses=[node_oh4600065.3 node_t4600007.3] xfmrcode=10-kva-1ph 
new transformer.t4600008 buses=[node_oh4600067.3 node_t4600008.3] xfmrcode=10-kva-1ph 
new transformer.t4700026 buses=[node_oh4700082.3 node_t4700026.3] xfmrcode=10-kva-1ph 
new transformer.t4700025 buses=[node_oh4700083.3 node_t4700025.3] xfmrcode=10-kva-1ph 
new transformer.t4700040 buses=[node_oh4700094.3 node_t4700040.3] xfmrcode=10-kva-1ph 
new transformer.t4700045 buses=[node_oh4700104.3 node_t4700045.3] xfmrcode=0-kva-1ph-ug 
new transformer.t4700046 buses=[node_oh4700112.3 node_t4700046.3] xfmrcode=0-kva-1ph-ug 
new transformer.t4700028 buses=[node_oh4700119.3 node_t4700028.3] xfmrcode=10-kva-1ph 
new transformer.t4700029 buses=[node_oh4700123.3 node_t4700029.3] xfmrcode=10-kva-1ph 
new transformer.t4700030 buses=[node_oh4700128.3 node_t4700030.3] xfmrcode=10-kva-1ph 
new transformer.t4700033 buses=[node_oh4700136.3 node_t4700033.3] xfmrcode=10-kva-1ph 
new transformer.t4700031 buses=[node_oh4700134.3 node_t4700031.3] xfmrcode=10-kva-1ph 
new transformer.t4700052 buses=[node_oh4700131.3 node_t4700052.3] xfmrcode=0-kva-1ph-ug 
new transformer.t555 buses=[node_oh4700090.3 node_t555.3] xfmrcode=10-kva-1ph 
new transformer.t4700059 buses=[node_oh4700078.3 node_t4700059.3] xfmrcode=0-kva-1ph-ug 
new transformer.t4700060 buses=[node_oh4700081.3 node_t4700060.3] xfmrcode=10-kva-1ph 
new transformer.t4700067 buses=[node_oh4700071.3 node_t4700067.3] xfmrcode=10-kva-1ph 
new transformer.t4700066 buses=[node_oh4700072.3 node_t4700066.3] xfmrcode=10-kva-1ph 
new transformer.t4600179 buses=[node_oh4600090.3 node_t4600179.3] xfmrcode=15-kva-1ph 
new transformer.t4600180 buses=[node_oh4600091.3 node_t4600180.3] xfmrcode=25-kva-1ph 
new transformer.t4500262 buses=[node_oh4500037.3 node_t4500262.3] xfmrcode=0-kva-1ph-ug 
new transformer.t4500250 buses=[node_oh4500009.3 node_t4500250.3] xfmrcode=0-kva-1ph-ug 
new transformer.t4500251 buses=[node_oh4500013.3 node_t4500251.3] xfmrcode=0-kva-1ph-ug 
new transformer.t4500258 buses=[node_oh4500030.2 node_t4500258.2] xfmrcode=0-kva-1ph-ug 
new transformer.t4500259 buses=[node_oh4500033.3 node_t4500259.3] xfmrcode=10-kva-1ph 
new transformer.xfmr4306771 buses=[node_oh4306766.3 node_xfmr4306771.3] xfmrcode=10-kva-1ph 
new transformer.xfmr4306773 buses=[node_oh4306772.3 node_xfmr4306773.3] xfmrcode=10-kva-1ph 
new transformer.xfmr4306775 buses=[node_oh4306774.3 node_xfmr4306775.3] xfmrcode=10-kva-1ph 
new transformer.xfmr4306778 buses=[node_oh4306777.3 node_xfmr4306778.3] xfmrcode=0-kva-1ph-ug 
new transformer.xfmr4306785 buses=[node_oh4306784.3 node_xfmr4306785.3] xfmrcode=10-kva-1ph 
new transformer.xfmr4306791 buses=[node_oh4306790.3 node_xfmr4306791.3] xfmrcode=0-kva-1ph-ug 
new transformer.xfmr4306783 buses=[node_oh4306782.3 node_xfmr4306783.3] xfmrcode=0-kva-1ph-ug 
new transformer.xfmr4306769 buses=[node_oh4306767.3 node_xfmr4306769.3] xfmrcode=0-kva-1ph-ug 
new transformer.xfmr4306770 buses=[node_oh4306768.3 node_xfmr4306770.3] xfmrcode=0-kva-1ph-ug 
new transformer.t4500261 buses=[node_oh4500063.1 node_t4500261.1] xfmrcode=0-kva-1ph 
new transformer.t4500260 buses=[node_oh4500064.1 node_t4500260.1] xfmrcode=0-kva-1ph 
new transformer.t4500302 buses=[node_oh4500029.3 node_t4500302.3] xfmrcode=0-kva-1ph-ug 
new transformer.t4500293 buses=[node_oh4500067.3 node_t4500293.3] xfmrcode=0-kva-1ph-ug 
new transformer.t4500249 buses=[node_oh4500002.3 node_t4500249.3] xfmrcode=50-kva-1ph 
new transformer.t4500253 buses=[node_oh4500016.3 node_t4500253.3] xfmrcode=0-kva-1ph-ug 
new transformer.t4500294 buses=[node_oh4500069.1 node_t4500294.1] xfmrcode=0-kva-1ph 
new transformer.t4500295 buses=[node_oh4500071.3 node_t4500295.3] xfmrcode=0-kva-1ph-ug 
new transformer.t4500296 buses=[node_oh4500075.2 node_t4500296.2] xfmrcode=0-kva-1ph-ug 
new transformer.t4500299 buses=[node_oh4500081.2 node_t4500299.2] xfmrcode=0-kva-1ph-ug 
new transformer.t4500300 buses=[node_oh4500087.2 node_t4500300.2] xfmrcode=0-kva-1ph-ug 
new transformer.t4500297 buses=[node_oh4500082.2 node_t4500297.2] xfmrcode=0-kva-1ph-ug 
new transformer.t4500298 buses=[node_oh4500084.2 node_t4500298.2] xfmrcode=0-kva-1ph-ug 
new transformer.t4500255 buses=[node_oh4500022.1 node_t4500255.1] xfmrcode=10-kva-1ph 
new transformer.t4500301 buses=[node_oh4500091.2 node_t4500301.2] xfmrcode=0-kva-1ph-ug 
new transformer.t4500256 buses=[node_oh4500025.1.2.3 node_t4500256.1.2.3] xfmrcode=75-kva-3ph-ug 
new transformer.t4400098 buses=[node_oh4400207.3 node_t4400098.3] xfmrcode=0-kva-1ph-ug 
new transformer.t4500263 buses=[node_oh4500047.3 node_t4500263.3] xfmrcode=0-kva-1ph-ug 
new transformer.t4500267 buses=[node_oh4500051.3 node_t4500267.3] xfmrcode=0-kva-1ph-ug 
new transformer.t4400002 buses=[node_oh4400006.3 node_t4400002.3] xfmrcode=10-kva-1ph 
new transformer.t4400089 buses=[node_oh4400184.3 node_t4400089.3] xfmrcode=0-kva-1ph-ug 
new transformer.t4400004 buses=[node_oh4400009.1 node_t4400004.1] xfmrcode=25-kva-1ph 
new transformer.t4400142 buses=[node_oh4400014.3 node_t4400142.3] xfmrcode=0-kva-1ph-ug 
new transformer.t4400006 buses=[node_oh4400021.2 node_t4400006.2] xfmrcode=5-kva-1-ph 
new transformer.t4400104 buses=[node_oh4400217.1.2.3 node_t4400104.1.2.3] xfmrcode=75-kva-3ph-ug
new transformer.t4400105 buses=[node_oh4400215.2 node_t4400105.2] xfmrcode=0-kva-1ph-ug 
new transformer.t4400106 buses=[node_oh4400220.2 node_t4400106.2] xfmrcode=0-kva-1ph-ug 
new transformer.t4400111 buses=[node_oh4400230.2 node_t4400111.2] xfmrcode=0-kva-1ph-ug 
new transformer.t4400112 buses=[node_oh4400231.2 node_t4400112.2] xfmrcode=0-kva-1ph-ug 
new transformer.t4400110 buses=[node_oh4400229.2 node_t4400110.2] xfmrcode=0-kva-1ph-ug 
new transformer.t4400108 buses=[node_oh4400224.2 node_t4400108.2] xfmrcode=0-kva-1ph-ug 
new transformer.t4400109 buses=[node_oh4400225.2 node_t4400109.2] xfmrcode=0-kva-1ph-ug 
new transformer.t4400009 buses=[node_oh4400027.1.2.3 node_t4400009.1.2.3] xfmrcode=75-kva-3ph-ug
new transformer.t4400010 buses=[node_oh4400236.3 node_t4400010.3] xfmrcode=10-kva-1ph 
new transformer.t4400114 buses=[node_oh4400237.1 node_t4400114.1] xfmrcode=0-kva-1ph 
new transformer.t4400115 buses=[node_oh4400239.3 node_t4400115.3] xfmrcode=0-kva-1ph-ug 
new transformer.t4400116 buses=[node_oh4400240.2 node_t4400116.2] xfmrcode=0-kva-1ph-ug 
new transformer.t4400120 buses=[node_oh4400246.2 node_t4400120.2] xfmrcode=10-kva-1ph 
new transformer.t4400121 buses=[node_oh4400248.2 node_t4400121.2] xfmrcode=0-kva-1ph-ug 
new transformer.t4400122 buses=[node_oh4400250.2 node_t4400122.2] xfmrcode=0-kva-1ph-ug 
new transformer.t4400119 buses=[node_oh4400244.2 node_t4400119.2] xfmrcode=0-kva-1ph-ug 
new transformer.t4400011 buses=[node_oh4400033.1 node_t4400011.1] xfmrcode=25-kva-1ph 
new transformer.t4400012 buses=[node_oh4400038.3 node_t4400012.3] xfmrcode=10-kva-1ph 
new transformer.t4400013 buses=[node_oh4400040.3 node_t4400013.3] xfmrcode=10-kva-1ph 
new transformer.t4400014 buses=[node_oh4400041.3 node_t4400014.3] xfmrcode=0-kva-1ph-ug 
new transformer.t4400090 buses=[node_oh4400191.1 node_t4400090.1] xfmrcode=10-kva-1ph 
new transformer.t4400029 buses=[node_oh4400086.1 node_t4400029.1] xfmrcode=10-kva-1ph 
new transformer.t4400030 buses=[node_oh4400095.1 node_t4400030.1] xfmrcode=10-kva-1ph 
new transformer.t4400031 buses=[node_oh4400098.1 node_t4400031.1] xfmrcode=10-kva-1ph 
new transformer.t4400032 buses=[node_oh4400100.1 node_t4400032.1] xfmrcode=10-kva-1ph 
new transformer.t4400033 buses=[node_oh4400102.1 node_t4400033.1] xfmrcode=10-kva-1ph 
new transformer.t4400034 buses=[node_oh4400104.1 node_t4400034.1] xfmrcode=10-kva-1ph 
new transformer.t4400035 buses=[node_oh4400106.1 node_t4400035.1] xfmrcode=10-kva-1ph 
new transformer.t4400037 buses=[node_oh4400108.1 node_t4400037.1] xfmrcode=10-kva-1ph 
new transformer.t4400038 buses=[node_oh4400111.1 node_t4400038.1] xfmrcode=10-kva-1ph 
new transformer.t4400039 buses=[node_oh4400113.1 node_t4400039.1] xfmrcode=10-kva-1ph 
new transformer.t4400040 buses=[node_oh4400114.1 node_t4400040.1] xfmrcode=10-kva-1ph 
new transformer.t4400041 buses=[node_oh4400115.1 node_t4400041.1] xfmrcode=10-kva-1ph 
new transformer.t4400042 buses=[node_oh4400117.1 node_t4400042.1] xfmrcode=10-kva-1ph 
new transformer.t4400064 buses=[node_oh4400148.1 node_t4400064.1] xfmrcode=10-kva-1ph 
new transformer.t4400065 buses=[node_oh4400150.1 node_t4400065.1] xfmrcode=10-kva-1ph 
new transformer.t4400066 buses=[node_oh4400151.1 node_t4400066.1] xfmrcode=10-kva-1ph 
new transformer.t4400067 buses=[node_oh4400153.1 node_t4400067.1] xfmrcode=0-kva-1ph 
new transformer.t4400068 buses=[node_oh4400155.1 node_t4400068.1] xfmrcode=10-kva-1ph 
new transformer.t4400069 buses=[node_oh4400157.1 node_t4400069.1] xfmrcode=10-kva-1ph 
new transformer.t4400070 buses=[node_oh4400156.1 node_t4400070.1] xfmrcode=10-kva-1ph 
new transformer.t4400071 buses=[node_oh4400160.1 node_t4400071.1] xfmrcode=10-kva-1ph 
new transformer.t4400072 buses=[node_oh4400163.1 node_t4400072.1] xfmrcode=10-kva-1ph 
new transformer.t4400073 buses=[node_oh4400164.1 node_t4400073.1] xfmrcode=0-kva-1ph 
new transformer.t4400075 buses=[node_oh4400165.1 node_t4400075.1] xfmrcode=10-kva-1ph 
new transformer.t4400074 buses=[node_oh4400168.1 node_t4400074.1] xfmrcode=10-kva-1ph 
new transformer.t4400053 buses=[node_oh4400138.1 node_t4400053.1] xfmrcode=10-kva-1ph 
new transformer.t4400054 buses=[node_oh4400140.1 node_t4400054.1] xfmrcode=0-kva-1ph 
new transformer.t4300004 buses=[node_oh4300002.1 node_t4300004.1] xfmrcode=10-kva-1ph 
new transformer.t4400061 buses=[node_oh4400146.1 node_t4400061.1] xfmrcode=10-kva-1ph 
new transformer.t4400092 buses=[node_oh4400197.1 node_t4400092.1] xfmrcode=0-kva-1ph 
new transformer.t4400093 buses=[node_oh4400198.1 node_t4400093.1] xfmrcode=0-kva-1ph 
new transformer.t4400044 buses=[node_oh4400119.1 node_t4400044.1] xfmrcode=15-kva-1ph 
new transformer.t4400045 buses=[node_oh4400120.1 node_t4400045.1] xfmrcode=10-kva-1ph 
new transformer.t4400047 buses=[node_oh4400122.1 node_t4400047.1] xfmrcode=10-kva-1ph 
new transformer.t4400048 buses=[node_oh4400124.1 node_t4400048.1] xfmrcode=10-kva-1ph 
new transformer.t4400049 buses=[node_oh4400127.1 node_t4400049.1] xfmrcode=0-kva-1ph 
new transformer.t4400050 buses=[node_oh4400130.1 node_t4400050.1] xfmrcode=10-kva-1ph 
new transformer.t4400051 buses=[node_oh4400132.1 node_t4400051.1] xfmrcode=0-kva-1ph 
new transformer.t4400052 buses=[node_oh4400134.1 node_t4400052.1] xfmrcode=10-kva-1ph 
new transformer.t4400091 buses=[node_oh4400195.1 node_t4400091.1] xfmrcode=10-kva-1ph 
new transformer.t4400026 buses=[node_oh4400084.1 node_t4400026.1] xfmrcode=10-kva-1ph 
new transformer.t4400027 buses=[node_oh4400089.1 node_t4400027.1] xfmrcode=10-kva-1ph 
new transformer.t4400028 buses=[node_oh4400092.1 node_t4400028.1] xfmrcode=10-kva-1ph 
new transformer.t4400139 buses=[node_oh4400298.1 node_t4400139.1] xfmrcode=0-kva-1ph 
new transformer.t4400017 buses=[node_oh4400055.3 node_t4400017.3] xfmrcode=0-kva-1ph-ug 
new transformer.t4400019 buses=[node_oh4400062.3 node_t4400019.3] xfmrcode=0-kva-1ph-ug 
new transformer.t4400024 buses=[node_oh4400063.3 node_t4400024.3] xfmrcode=10-kva-1ph 
new transformer.t4400086 buses=[node_oh4400176.3 node_t4400086.3] xfmrcode=5-kva-1-ph 
new transformer.t4400087 buses=[node_oh4400178.3 node_t4400087.3] xfmrcode=10-kva-1ph 
new transformer.t4400088 buses=[node_oh4400179.3 node_t4400088.3] xfmrcode=10-kva-1ph 
new transformer.xfmr21000063 buses=[node_oh21000054.3 node_xfmr21000063.3] xfmrcode=0-kva-1ph-ug 
new transformer.xfmr21000061 buses=[node_oh21000055.3 node_xfmr21000061.3] xfmrcode=0-kva-1ph-ug 
new transformer.xfmr21000062 buses=[node_oh21000060.3 node_xfmr21000062.3] xfmrcode=0-kva-1ph-ug 
new transformer.xfmr21000050 buses=[node_oh21000046.3 node_xfmr21000050.3] xfmrcode=0-kva-1ph-ug 
new transformer.xfmr21000073 buses=[node_oh21000065.3 node_xfmr21000073.3] xfmrcode=0-kva-1ph-ug 
new transformer.xfmr21000078 buses=[node_oh21000077.3 node_xfmr21000078.3] xfmrcode=0-kva-1ph-ug 
new transformer.xfmr21000085 buses=[node_oh21000081.3 node_xfmr21000085.3] xfmrcode=0-kva-1ph-ug 
new transformer.xfmr21000083 buses=[node_oh21000080.3 node_xfmr21000083.3] xfmrcode=0-kva-1ph-ug 
new transformer.xfmr21000082 buses=[node_oh21000079.3 node_xfmr21000082.3] xfmrcode=0-kva-1ph-ug 
new transformer.xfmr21000049 buses=[node_oh21000048.3 node_xfmr21000049.3] xfmrcode=0-kva-1ph-ug 
new transformer.t4400143 buses=[node_oh4400257.3 node_t4400143.3] xfmrcode=0-kva-1ph-ug 
new transformer.t4400133 buses=[node_oh4400271.3 node_t4400133.3] xfmrcode=0-kva-1ph-ug 
new transformer.t4390017 buses=[node_oh4390002.3 node_t4390017.3] xfmrcode=0-kva-1ph-ug 
new transformer.t4400134 buses=[node_oh4400273.2 node_t4400134.2] xfmrcode=0-kva-1ph-ug 
new transformer.t4400135 buses=[node_oh4400274.2 node_t4400135.2] xfmrcode=0-kva-1ph-ug 
new transformer.t4400136 buses=[node_oh4400277.2 node_t4400136.2] xfmrcode=0-kva-1ph-ug 
new transformer.t4400137 buses=[node_oh4400278.2 node_t4400137.2] xfmrcode=0-kva-1ph-ug 
new transformer.t4400138 buses=[node_oh4400279.2 node_t4400138.2] xfmrcode=0-kva-1ph-ug 
new transformer.t4400126 buses=[node_oh4400262.2 node_t4400126.2] xfmrcode=0-kva-1ph-ug 
new transformer.t4400127 buses=[node_oh4400263.2 node_t4400127.2] xfmrcode=0-kva-1ph-ug 
new transformer.t4400128 buses=[node_oh4400268.2 node_t4400128.2] xfmrcode=0-kva-1ph-ug 
new transformer.t4400015 buses=[node_oh4400049.3 node_t4400015.3] xfmrcode=0-kva-1ph-ug 
new transformer.t4400123 buses=[node_oh4400254.3 node_t4400123.3] xfmrcode=0-kva-1ph-ug 
new transformer.t4400005 buses=[node_oh4400018.3 node_t4400005.3] xfmrcode=0-kva-1ph-ug 
new transformer.t4400101 buses=[node_oh4400210.1.2.3 node_t4400101.1.2.3] xfmrcode=300-kva-3ph-ug 
new transformer.t4400102 buses=[node_oh4400211.1.2.3 node_t4400102.1.2.3] xfmrcode=300-kva-3ph-ug 
new transformer.xfmr4306343 buses=[node_ug4306328.1.2.3 node_xfmr4306343.1.2.3] xfmrcode=0-kva-3ph-ug 
new transformer.xfmr4306336 buses=[node_ug4306333.1.2.3 node_xfmr4306336.1.2.3] xfmrcode=300-kva-3ph-ug 
new transformer.xfmr4306337 buses=[node_ug4306335.1.2.3 node_xfmr4306337.1.2.3] xfmrcode=300-kva-3ph-ug 
new transformer.xfmr4306253 buses=[node_ug4303615.1.2.3 node_xfmr4306253.1.2.3] xfmrcode=300-kva-3ph-ug 
new transformer.xfmr4306252 buses=[node_ug4303616.1.2.3 node_xfmr4306252.1.2.3] xfmrcode=150-kva-3ph-ug 
new transformer.xfmr4302940 buses=[node_ug4307210.2 node_xfmr4302940.2] xfmrcode=0-kva-1ph-ug 